
 *******************************************************************************

         NASA-GLENN CHEMICAL EQUILIBRIUM PROGRAM CEA2, MAY 21, 2004
                   BY  BONNIE MCBRIDE AND SANFORD GORDON
      REFS: NASA RP-1311, PART I, 1994 AND NASA RP-1311, PART II, 1996

 *******************************************************************************



 problem    o/f=3,
       hp   p,bar=0.1,1,10,100,  t,k=3800
 react
   oxid=O2 wt=1  t,k=298.15
   fuel=H2 wt=1  t,k=298.15
 output  short transport
     plot p t m
 end





         THERMODYNAMIC EQUILIBRIUM COMBUSTION PROPERTIES AT ASSIGNED

                                   PRESSURES

 CASE =                

             REACTANT                    WT FRACTION      ENERGY      TEMP
                                          (SEE NOTE)     KJ/KG-MOL      K  
 OXIDANT     O2                           1.0000000        -0.000    298.150
 FUEL        H2                           1.0000000        -0.000    298.150

 O/F=    3.00000  %FUEL= 25.000000  R,EQ.RATIO= 2.645561  PHI,EQ.RATIO= 2.645561

 THERMODYNAMIC PROPERTIES

 P, BAR           0.10000   1.0000   10.000   100.00
 T, K             2435.59  2563.43  2652.47  2698.96
 RHO, KG/CU M    3.8778-3 3.7270-2 3.6312-1 3.5839 0
 H, KJ/KG        -0.00000 -0.00000 -0.00000 -0.00000
 U, KJ/KG        -2578.80 -2683.11 -2753.90 -2790.26
 G, KJ/KG        -77283.8 -75127.9 -71372.7 -66187.0
 S, KJ/(KG)(K)    31.7310  29.3075  26.9080  24.5231

 M, (1/n)           7.853    7.944    8.008    8.042
 (dLV/dLP)t      -1.01323 -1.00749 -1.00344 -1.00131
 (dLV/dLT)p        1.3079   1.1662   1.0739   1.0277
 Cp, KJ/(KG)(K)   12.9498   9.2542   7.0618   6.0260
 GAMMAs            1.1450   1.1714   1.1992   1.2193
 SON VEL,M/SEC     1718.3   1772.9   1817.3   1844.5

 TRANSPORT PROPERTIES (GASES ONLY)
   CONDUCTIVITY IN UNITS OF MILLIWATTS/(CM)(K)

 VISC,MILLIPOISE  0.71225  0.73821  0.75575  0.76474

  WITH EQUILIBRIUM REACTIONS

 Cp, KJ/(KG)(K)   12.9498   9.2542   7.0618   6.0260
 CONDUCTIVITY     24.4720  16.1625  10.8475   8.2122
 PRANDTL NUMBER    0.3769   0.4227   0.4920   0.5612

  WITH FROZEN REACTIONS

 Cp, KJ/(KG)(K)    5.3194   5.3680   5.4001   5.4163
 CONDUCTIVITY      6.1378   6.3664   6.5194   6.5972
 PRANDTL NUMBER    0.6173   0.6224   0.6260   0.6279

 MOLE FRACTIONS

 *H               0.04560  0.02565  0.01174  0.00446
 *H2              0.58635  0.60200  0.61287  0.61854
 H2O              0.36173  0.36839  0.37346  0.37624
 *O               0.00028  0.00010  0.00002  0.00000
 *OH              0.00597  0.00384  0.00191  0.00076
 *O2              0.00007  0.00002  0.00001  0.00000

  * THERMODYNAMIC PROPERTIES FITTED TO 20000.K

 NOTE. WEIGHT FRACTION OF FUEL IN TOTAL FUELS AND OF OXIDANT IN TOTAL OXIDANTS



