
 *******************************************************************************

         NASA-GLENN CHEMICAL EQUILIBRIUM PROGRAM CEA2, MAY 21, 2004
                   BY  BONNIE MCBRIDE AND SANFORD GORDON
      REFS: NASA RP-1311, PART I, 1994 AND NASA RP-1311, PART II, 1996

 *******************************************************************************



 problem    o/f=2,2.5,3,3.5,4,4.5,5,
     hp   p,bar=1,  t,k=3800
 react
   oxid=O2 wt=1  t,k=298.15
   fuel=CH4 wt=1  t,k=298.15
 output  short transport
     plot t o/f
 end





         THERMODYNAMIC EQUILIBRIUM COMBUSTION PROPERTIES AT ASSIGNED

                                   PRESSURES

 CASE =                

             REACTANT                    WT FRACTION      ENERGY      TEMP
                                          (SEE NOTE)     KJ/KG-MOL      K  
 OXIDANT     O2                           1.0000000        -0.000    298.150
 FUEL        CH4                          1.0000000    -74600.000    298.150

 O/F=    2.00000  %FUEL= 33.333333  R,EQ.RATIO= 1.994632  PHI,EQ.RATIO= 1.994632

 THERMODYNAMIC PROPERTIES

 P, BAR            1.0000
 T, K             2613.60
 RHO, KG/CU M    7.2725-2
 H, KJ/KG        -1550.05
 U, KJ/KG        -2925.11
 G, KJ/KG        -44049.6
 S, KJ/(KG)(K)    16.2609

 M, (1/n)          15.804
 (dLV/dLP)t      -1.00755
 (dLV/dLT)p        1.1663
 Cp, KJ/(KG)(K)    4.6451
 GAMMAs            1.1716
 SON VEL,M/SEC     1269.3

 TRANSPORT PROPERTIES (GASES ONLY)
   CONDUCTIVITY IN UNITS OF MILLIWATTS/(CM)(K)

 VISC,MILLIPOISE  0.82073

  WITH EQUILIBRIUM REACTIONS

 Cp, KJ/(KG)(K)    4.6451
 CONDUCTIVITY     10.7734
 PRANDTL NUMBER    0.3539

  WITH FROZEN REACTIONS

 Cp, KJ/(KG)(K)    2.6862
 CONDUCTIVITY      3.9204
 PRANDTL NUMBER    0.5624

 MOLE FRACTIONS

 *CO              0.29182
 *CO2             0.03655
 *H               0.02417
 *H2              0.35393
 H2O              0.28819
 *O               0.00020
 *OH              0.00506
 *O2              0.00007

  * THERMODYNAMIC PROPERTIES FITTED TO 20000.K

 NOTE. WEIGHT FRACTION OF FUEL IN TOTAL FUELS AND OF OXIDANT IN TOTAL OXIDANTS









         THERMODYNAMIC EQUILIBRIUM COMBUSTION PROPERTIES AT ASSIGNED

                                   PRESSURES

 CASE =                

             REACTANT                    WT FRACTION      ENERGY      TEMP
                                          (SEE NOTE)     KJ/KG-MOL      K  
 OXIDANT     O2                           1.0000000        -0.000    298.150
 FUEL        CH4                          1.0000000    -74600.000    298.150

 O/F=    2.50000  %FUEL= 28.571429  R,EQ.RATIO= 1.595705  PHI,EQ.RATIO= 1.595705

 THERMODYNAMIC PROPERTIES

 P, BAR            1.0000
 T, K             2922.14
 RHO, KG/CU M    7.2883-2
 H, KJ/KG        -1328.62
 U, KJ/KG        -2700.69
 G, KJ/KG        -46110.0
 S, KJ/(KG)(K)    15.3249

 M, (1/n)          17.708
 (dLV/dLP)t      -1.03033
 (dLV/dLT)p        1.6264
 Cp, KJ/(KG)(K)    8.6724
 GAMMAs            1.1273
 SON VEL,M/SEC     1243.7

 TRANSPORT PROPERTIES (GASES ONLY)
   CONDUCTIVITY IN UNITS OF MILLIWATTS/(CM)(K)

 VISC,MILLIPOISE  0.92918

  WITH EQUILIBRIUM REACTIONS

 Cp, KJ/(KG)(K)    8.6724
 CONDUCTIVITY     20.7437
 PRANDTL NUMBER    0.3885

  WITH FROZEN REACTIONS

 Cp, KJ/(KG)(K)    2.5271
 CONDUCTIVITY      3.8734
 PRANDTL NUMBER    0.6062

 MOLE FRACTIONS

 *CO              0.25502
 *CO2             0.06035
 *H               0.05748
 *H2              0.21576
 H2O              0.36956
 *O               0.00504
 *OH              0.03336
 *O2              0.00343

  * THERMODYNAMIC PROPERTIES FITTED TO 20000.K

 NOTE. WEIGHT FRACTION OF FUEL IN TOTAL FUELS AND OF OXIDANT IN TOTAL OXIDANTS









         THERMODYNAMIC EQUILIBRIUM COMBUSTION PROPERTIES AT ASSIGNED

                                   PRESSURES

 CASE =                

             REACTANT                    WT FRACTION      ENERGY      TEMP
                                          (SEE NOTE)     KJ/KG-MOL      K  
 OXIDANT     O2                           1.0000000        -0.000    298.150
 FUEL        CH4                          1.0000000    -74600.000    298.150

 O/F=    3.00000  %FUEL= 25.000000  R,EQ.RATIO= 1.329754  PHI,EQ.RATIO= 1.329754

 THERMODYNAMIC PROPERTIES

 P, BAR            1.0000
 T, K             3025.45
 RHO, KG/CU M    7.6383-2
 H, KJ/KG        -1162.54
 U, KJ/KG        -2471.73
 G, KJ/KG        -45167.6
 S, KJ/(KG)(K)    14.5450

 M, (1/n)          19.214
 (dLV/dLP)t      -1.05593
 (dLV/dLT)p        2.1333
 Cp, KJ/(KG)(K)   12.4082
 GAMMAs            1.1145
 SON VEL,M/SEC     1208.0

 TRANSPORT PROPERTIES (GASES ONLY)
   CONDUCTIVITY IN UNITS OF MILLIWATTS/(CM)(K)

 VISC,MILLIPOISE  0.98164

  WITH EQUILIBRIUM REACTIONS

 Cp, KJ/(KG)(K)   12.4082
 CONDUCTIVITY     27.3637
 PRANDTL NUMBER    0.4451

  WITH FROZEN REACTIONS

 Cp, KJ/(KG)(K)    2.3832
 CONDUCTIVITY      3.6747
 PRANDTL NUMBER    0.6366

 MOLE FRACTIONS

 *CO              0.21637
 *CO2             0.08305
 *H               0.06354
 HO2              0.00002
 *H2              0.13825
 H2O              0.39551
 *O               0.01720
 *OH              0.06664
 *O2              0.01942

  * THERMODYNAMIC PROPERTIES FITTED TO 20000.K

 NOTE. WEIGHT FRACTION OF FUEL IN TOTAL FUELS AND OF OXIDANT IN TOTAL OXIDANTS









         THERMODYNAMIC EQUILIBRIUM COMBUSTION PROPERTIES AT ASSIGNED

                                   PRESSURES

 CASE =                

             REACTANT                    WT FRACTION      ENERGY      TEMP
                                          (SEE NOTE)     KJ/KG-MOL      K  
 OXIDANT     O2                           1.0000000        -0.000    298.150
 FUEL        CH4                          1.0000000    -74600.000    298.150

 O/F=    3.50000  %FUEL= 22.222222  R,EQ.RATIO= 1.139790  PHI,EQ.RATIO= 1.139790

 THERMODYNAMIC PROPERTIES

 P, BAR            1.0000
 T, K             3051.19
 RHO, KG/CU M    8.0634-2
 H, KJ/KG        -1033.37
 U, KJ/KG        -2273.54
 G, KJ/KG        -43458.5
 S, KJ/(KG)(K)    13.9044

 M, (1/n)          20.456
 (dLV/dLP)t      -1.06760
 (dLV/dLT)p        2.3664
 Cp, KJ/(KG)(K)   13.5846
 GAMMAs            1.1111
 SON VEL,M/SEC     1173.8

 TRANSPORT PROPERTIES (GASES ONLY)
   CONDUCTIVITY IN UNITS OF MILLIWATTS/(CM)(K)

 VISC,MILLIPOISE   1.0060

  WITH EQUILIBRIUM REACTIONS

 Cp, KJ/(KG)(K)   13.5846
 CONDUCTIVITY     29.8299
 PRANDTL NUMBER    0.4581

  WITH FROZEN REACTIONS

 Cp, KJ/(KG)(K)    2.2633
 CONDUCTIVITY      3.4722
 PRANDTL NUMBER    0.6558

 MOLE FRACTIONS

 *CO              0.18292
 *CO2             0.10045
 *H               0.05733
 HO2              0.00003
 *H2              0.09644
 H2O              0.39748
 *O               0.02938
 *OH              0.08825
 *O2              0.04773

  * THERMODYNAMIC PROPERTIES FITTED TO 20000.K

 NOTE. WEIGHT FRACTION OF FUEL IN TOTAL FUELS AND OF OXIDANT IN TOTAL OXIDANTS









         THERMODYNAMIC EQUILIBRIUM COMBUSTION PROPERTIES AT ASSIGNED

                                   PRESSURES

 CASE =                

             REACTANT                    WT FRACTION      ENERGY      TEMP
                                          (SEE NOTE)     KJ/KG-MOL      K  
 OXIDANT     O2                           1.0000000        -0.000    298.150
 FUEL        CH4                          1.0000000    -74600.000    298.150

 O/F=    4.00000  %FUEL= 20.000000  R,EQ.RATIO= 0.997316  PHI,EQ.RATIO= 0.997316

 THERMODYNAMIC PROPERTIES

 P, BAR            1.0000
 T, K             3048.26
 RHO, KG/CU M    8.4886-2
 H, KJ/KG         -930.03
 U, KJ/KG        -2108.08
 G, KJ/KG        -41697.7
 S, KJ/(KG)(K)    13.3741

 M, (1/n)          21.514
 (dLV/dLP)t      -1.06892
 (dLV/dLT)p        2.4017
 Cp, KJ/(KG)(K)   13.2748
 GAMMAs            1.1099
 SON VEL,M/SEC     1143.5

 TRANSPORT PROPERTIES (GASES ONLY)
   CONDUCTIVITY IN UNITS OF MILLIWATTS/(CM)(K)

 VISC,MILLIPOISE   1.0168

  WITH EQUILIBRIUM REACTIONS

 Cp, KJ/(KG)(K)   13.2748
 CONDUCTIVITY     29.5056
 PRANDTL NUMBER    0.4575

  WITH FROZEN REACTIONS

 Cp, KJ/(KG)(K)    2.1648
 CONDUCTIVITY      3.2937
 PRANDTL NUMBER    0.6683

 MOLE FRACTIONS

 *CO              0.15500
 *CO2             0.11321
 *H               0.04888
 HO2              0.00005
 *H2              0.07134
 H2O              0.39074
 *O               0.03830
 *OH              0.09978
 *O2              0.08270

  * THERMODYNAMIC PROPERTIES FITTED TO 20000.K

 NOTE. WEIGHT FRACTION OF FUEL IN TOTAL FUELS AND OF OXIDANT IN TOTAL OXIDANTS









         THERMODYNAMIC EQUILIBRIUM COMBUSTION PROPERTIES AT ASSIGNED

                                   PRESSURES

 CASE =                

             REACTANT                    WT FRACTION      ENERGY      TEMP
                                          (SEE NOTE)     KJ/KG-MOL      K  
 OXIDANT     O2                           1.0000000        -0.000    298.150
 FUEL        CH4                          1.0000000    -74600.000    298.150

 O/F=    4.50000  %FUEL= 18.181818  R,EQ.RATIO= 0.886503  PHI,EQ.RATIO= 0.886503

 THERMODYNAMIC PROPERTIES

 P, BAR            1.0000
 T, K             3033.16
 RHO, KG/CU M    8.8951-2
 H, KJ/KG         -845.48
 U, KJ/KG        -1969.70
 G, KJ/KG        -40061.6
 S, KJ/(KG)(K)    12.9291

 M, (1/n)          22.433
 (dLV/dLP)t      -1.06581
 (dLV/dLT)p        2.3516
 Cp, KJ/(KG)(K)   12.4602
 GAMMAs            1.1095
 SON VEL,M/SEC     1116.8

 TRANSPORT PROPERTIES (GASES ONLY)
   CONDUCTIVITY IN UNITS OF MILLIWATTS/(CM)(K)

 VISC,MILLIPOISE   1.0204

  WITH EQUILIBRIUM REACTIONS

 Cp, KJ/(KG)(K)   12.4602
 CONDUCTIVITY     27.8847
 PRANDTL NUMBER    0.4560

  WITH FROZEN REACTIONS

 Cp, KJ/(KG)(K)    2.0828
 CONDUCTIVITY      3.1391
 PRANDTL NUMBER    0.6770

 MOLE FRACTIONS

 *CO              0.13175
 *CO2             0.12249
 *H               0.04096
 HO2              0.00006
 *H2              0.05483
 H2O              0.38072
 *O               0.04394
 *OH              0.10485
 *O2              0.12040

  * THERMODYNAMIC PROPERTIES FITTED TO 20000.K

 NOTE. WEIGHT FRACTION OF FUEL IN TOTAL FUELS AND OF OXIDANT IN TOTAL OXIDANTS









         THERMODYNAMIC EQUILIBRIUM COMBUSTION PROPERTIES AT ASSIGNED

                                   PRESSURES

 CASE =                

             REACTANT                    WT FRACTION      ENERGY      TEMP
                                          (SEE NOTE)     KJ/KG-MOL      K  
 OXIDANT     O2                           1.0000000        -0.000    298.150
 FUEL        CH4                          1.0000000    -74600.000    298.150

 O/F=    5.00000  %FUEL= 16.666667  R,EQ.RATIO= 0.797853  PHI,EQ.RATIO= 0.797853

 THERMODYNAMIC PROPERTIES

 P, BAR            1.0000
 T, K             3012.25
 RHO, KG/CU M    9.2790-2
 H, KJ/KG         -775.03
 U, KJ/KG        -1852.73
 G, KJ/KG        -38581.4
 S, KJ/(KG)(K)    12.5509

 M, (1/n)          23.240
 (dLV/dLP)t      -1.06109
 (dLV/dLT)p        2.2690
 Cp, KJ/(KG)(K)   11.5280
 GAMMAs            1.1095
 SON VEL,M/SEC     1093.5

 TRANSPORT PROPERTIES (GASES ONLY)
   CONDUCTIVITY IN UNITS OF MILLIWATTS/(CM)(K)

 VISC,MILLIPOISE   1.0199

  WITH EQUILIBRIUM REACTIONS

 Cp, KJ/(KG)(K)   11.5280
 CONDUCTIVITY     25.7936
 PRANDTL NUMBER    0.4558

  WITH FROZEN REACTIONS

 Cp, KJ/(KG)(K)    2.0137
 CONDUCTIVITY      3.0044
 PRANDTL NUMBER    0.6836

 MOLE FRACTIONS

 *CO              0.11228
 *CO2             0.12916
 *H               0.03415
 HO2              0.00007
 *H2              0.04326
 H2O              0.36955
 *O               0.04699
 *OH              0.10591
 *O2              0.15863

  * THERMODYNAMIC PROPERTIES FITTED TO 20000.K

 NOTE. WEIGHT FRACTION OF FUEL IN TOTAL FUELS AND OF OXIDANT IN TOTAL OXIDANTS



