
 *******************************************************************************

         NASA-GLENN CHEMICAL EQUILIBRIUM PROGRAM CEA2, MAY 21, 2004
                   BY  BONNIE MCBRIDE AND SANFORD GORDON
      REFS: NASA RP-1311, PART I, 1994 AND NASA RP-1311, PART II, 1996

 *******************************************************************************



 problem    o/f=3,3.5,4,4.5,5,5.5,6,6.5,7,7.5,8,8.5,9,9.5,
     rocket  equilibrium  tcest,k=3800
   p,bar=70,
   sup,ae/at=40,
 react
   oxid=O2(L) wt=1  t,k=90
   fuel=H2(L) wt=1  t,k=20
 output  short transport
     plot o/f ivac t m
 end






              THEORETICAL ROCKET PERFORMANCE ASSUMING EQUILIBRIUM

           COMPOSITION DURING EXPANSION FROM INFINITE AREA COMBUSTOR

 Pin =  1015.3 PSIA
 CASE =                

             REACTANT                    WT FRACTION      ENERGY      TEMP
                                          (SEE NOTE)     KJ/KG-MOL      K  
 OXIDANT     O2(L)                        1.0000000    -12979.000     90.000
 FUEL        H2(L)                        1.0000000     -9012.000     20.000

 O/F=    3.00000  %FUEL= 25.000000  R,EQ.RATIO= 2.645561  PHI,EQ.RATIO= 2.645561

                 CHAMBER   THROAT     EXIT
 Pinf/P            1.0000   1.7991   737.88
 P, BAR            70.000   38.908  0.09487
 T, K             2450.91  2190.92   540.24
 RHO, KG/CU M    2.7669 0 1.7216 0 1.7030-2
 H, KJ/KG        -1421.83 -2827.41 -10400.0
 U, KJ/KG        -3951.75 -5087.36 -10957.0
 G, KJ/KG        -61075.0 -56152.7 -23548.9
 S, KJ/(KG)(K)    24.3392  24.3392  24.3392

 M, (1/n)           8.055    8.061    8.064
 (dLV/dLP)t      -1.00054 -1.00019 -1.00000
 (dLV/dLT)p        1.0124   1.0047   1.0000
 Cp, KJ/(KG)(K)    5.6082   5.3056   3.9295
 GAMMAs            1.2317   1.2439   1.3558
 SON VEL,M/SEC     1765.3   1676.6    869.0
 MACH NUMBER        0.000    1.000    4.876

 TRANSPORT PROPERTIES (GASES ONLY)
   CONDUCTIVITY IN UNITS OF MILLIWATTS/(CM)(K)

 VISC,MILLIPOISE  0.71298  0.65677  0.20530

  WITH EQUILIBRIUM REACTIONS

 Cp, KJ/(KG)(K)    5.6082   5.3056   3.9295
 CONDUCTIVITY      6.7842   5.7325   1.6258
 PRANDTL NUMBER    0.5894   0.6079   0.4962

  WITH FROZEN REACTIONS

 Cp, KJ/(KG)(K)    5.3104   5.1805   3.9295
 CONDUCTIVITY      6.0301   5.4339   1.6258
 PRANDTL NUMBER    0.6279   0.6261   0.4962

 PERFORMANCE PARAMETERS

 Ae/At                      1.0000   40.000
 CSTAR, M/SEC               2425.0   2425.0
 CF                         0.6914   1.7474
 Ivac, M/SEC                3024.5   4368.9
 Isp, M/SEC                 1676.6   4237.5


 MOLE FRACTIONS

 *H               0.00190  0.00068  0.00000
 *H2              0.62051  0.62147  0.62201
 H2O              0.37733  0.37779  0.37799
 *OH              0.00025  0.00006  0.00000

  * THERMODYNAMIC PROPERTIES FITTED TO 20000.K

 NOTE. WEIGHT FRACTION OF FUEL IN TOTAL FUELS AND OF OXIDANT IN TOTAL OXIDANTS










              THEORETICAL ROCKET PERFORMANCE ASSUMING EQUILIBRIUM

           COMPOSITION DURING EXPANSION FROM INFINITE AREA COMBUSTOR

 Pin =  1015.3 PSIA
 CASE =                

             REACTANT                    WT FRACTION      ENERGY      TEMP
                                          (SEE NOTE)     KJ/KG-MOL      K  
 OXIDANT     O2(L)                        1.0000000    -12979.000     90.000
 FUEL        H2(L)                        1.0000000     -9012.000     20.000

 O/F=    3.50000  %FUEL= 22.222222  R,EQ.RATIO= 2.267624  PHI,EQ.RATIO= 2.267624

                 CHAMBER   THROAT     EXIT
 Pinf/P            1.0000   1.7854   676.51
 P, BAR            70.000   39.208  0.10347
 T, K             2719.30  2458.90   669.57
 RHO, KG/CU M    2.7991 0 1.7371 0 1.6860-2
 H, KJ/KG        -1308.92 -2687.13 -10452.4
 U, KJ/KG        -3809.69 -4944.16 -11066.1
 G, KJ/KG        -63225.1 -58674.1 -25697.8
 S, KJ/(KG)(K)    22.7691  22.7691  22.7691

 M, (1/n)           9.041    9.058    9.071
 (dLV/dLP)t      -1.00168 -1.00073 -1.00000
 (dLV/dLT)p        1.0356   1.0170   1.0000
 Cp, KJ/(KG)(K)    5.6555   5.2190   3.6169
 GAMMAs            1.2088   1.2213   1.3394
 SON VEL,M/SEC     1738.6   1660.2    906.6
 MACH NUMBER        0.000    1.000    4.717

 TRANSPORT PROPERTIES (GASES ONLY)
   CONDUCTIVITY IN UNITS OF MILLIWATTS/(CM)(K)

 VISC,MILLIPOISE  0.79607  0.73954  0.25321

  WITH EQUILIBRIUM REACTIONS

 Cp, KJ/(KG)(K)    5.6555   5.2190   3.6169
 CONDUCTIVITY      8.0630   6.5623   1.7449
 PRANDTL NUMBER    0.5584   0.5882   0.5249

  WITH FROZEN REACTIONS

 Cp, KJ/(KG)(K)    4.9563   4.8547   3.6169
 CONDUCTIVITY      6.1641   5.6107   1.7449
 PRANDTL NUMBER    0.6401   0.6399   0.5249

 PERFORMANCE PARAMETERS

 Ae/At                      1.0000   40.000
 CSTAR, M/SEC               2427.1   2427.1
 CF                         0.6840   1.7619
 Ivac, M/SEC                3019.7   4419.8
 Isp, M/SEC                 1660.2   4276.3


 MOLE FRACTIONS

 *H               0.00545  0.00250  0.00000
 *H2              0.55504  0.55716  0.55901
 H2O              0.43828  0.43991  0.44099
 *O               0.00001  0.00000  0.00000
 *OH              0.00123  0.00043  0.00000

  * THERMODYNAMIC PROPERTIES FITTED TO 20000.K

 NOTE. WEIGHT FRACTION OF FUEL IN TOTAL FUELS AND OF OXIDANT IN TOTAL OXIDANTS










              THEORETICAL ROCKET PERFORMANCE ASSUMING EQUILIBRIUM

           COMPOSITION DURING EXPANSION FROM INFINITE AREA COMBUSTOR

 Pin =  1015.3 PSIA
 CASE =                

             REACTANT                    WT FRACTION      ENERGY      TEMP
                                          (SEE NOTE)     KJ/KG-MOL      K  
 OXIDANT     O2(L)                        1.0000000    -12979.000     90.000
 FUEL        H2(L)                        1.0000000     -9012.000     20.000

 O/F=    4.00000  %FUEL= 20.000000  R,EQ.RATIO= 1.984171  PHI,EQ.RATIO= 1.984171

                 CHAMBER   THROAT     EXIT
 Pinf/P            1.0000   1.7720   621.59
 P, BAR            70.000   39.504  0.11261
 T, K             2946.58  2695.13   809.64
 RHO, KG/CU M    2.8579 0 1.7697 0 1.6861-2
 H, KJ/KG        -1218.59 -2557.27 -10435.3
 U, KJ/KG        -3667.90 -4789.46 -11103.2
 G, KJ/KG        -64443.0 -60386.4 -27807.8
 S, KJ/(KG)(K)    21.4569  21.4569  21.4569

 M, (1/n)          10.003   10.039   10.079
 (dLV/dLP)t      -1.00385 -1.00202 -1.00000
 (dLV/dLT)p        1.0768   1.0436   1.0000
 Cp, KJ/(KG)(K)    5.9382   5.3593   3.4016
 GAMMAs            1.1883   1.1994   1.3201
 SON VEL,M/SEC     1706.0   1636.3    939.0
 MACH NUMBER        0.000    1.000    4.572

 TRANSPORT PROPERTIES (GASES ONLY)
   CONDUCTIVITY IN UNITS OF MILLIWATTS/(CM)(K)

 VISC,MILLIPOISE  0.86843  0.81349  0.30497

  WITH EQUILIBRIUM REACTIONS

 Cp, KJ/(KG)(K)    5.9382   5.3593   3.4016
 CONDUCTIVITY      9.7581   7.8226   1.8547
 PRANDTL NUMBER    0.5285   0.5573   0.5593

  WITH FROZEN REACTIONS

 Cp, KJ/(KG)(K)    4.6528   4.5737   3.4016
 CONDUCTIVITY      6.1840   5.6848   1.8547
 PRANDTL NUMBER    0.6534   0.6545   0.5593

 PERFORMANCE PARAMETERS

 Ae/At                      1.0000   40.000
 CSTAR, M/SEC               2417.3   2417.3
 CF                         0.6769   1.7761
 Ivac, M/SEC                3000.5   4449.0
 Isp, M/SEC                 1636.3   4293.4


 MOLE FRACTIONS

 *H               0.01118  0.00623  0.00000
 *H2              0.48869  0.49181  0.49601
 H2O              0.49613  0.50017  0.50399
 *O               0.00005  0.00001  0.00000
 *OH              0.00392  0.00177  0.00000
 *O2              0.00002  0.00001  0.00000

  * THERMODYNAMIC PROPERTIES FITTED TO 20000.K

 NOTE. WEIGHT FRACTION OF FUEL IN TOTAL FUELS AND OF OXIDANT IN TOTAL OXIDANTS










              THEORETICAL ROCKET PERFORMANCE ASSUMING EQUILIBRIUM

           COMPOSITION DURING EXPANSION FROM INFINITE AREA COMBUSTOR

 Pin =  1015.3 PSIA
 CASE =                

             REACTANT                    WT FRACTION      ENERGY      TEMP
                                          (SEE NOTE)     KJ/KG-MOL      K  
 OXIDANT     O2(L)                        1.0000000    -12979.000     90.000
 FUEL        H2(L)                        1.0000000     -9012.000     20.000

 O/F=    4.50000  %FUEL= 18.181818  R,EQ.RATIO= 1.763707  PHI,EQ.RATIO= 1.763707

                 CHAMBER   THROAT     EXIT
 Pinf/P            1.0000   1.7598   573.06
 P, BAR            70.000   39.776  0.12215
 T, K             3133.74  2896.59   958.56
 RHO, KG/CU M    2.9366 0 1.8155 0 1.6993-2
 H, KJ/KG        -1144.68 -2437.15 -10364.9
 U, KJ/KG        -3528.39 -4628.11 -11083.7
 G, KJ/KG        -64898.9 -61366.7 -29866.2
 S, KJ/(KG)(K)    20.3444  20.3444  20.3444

 M, (1/n)          10.931   10.992   11.087
 (dLV/dLP)t      -1.00723 -1.00435 -1.00000
 (dLV/dLT)p        1.1382   1.0891   1.0000
 Cp, KJ/(KG)(K)    6.4199   5.7229   3.2578
 GAMMAs            1.1713   1.1798   1.2990
 SON VEL,M/SEC     1671.0   1607.8    966.3
 MACH NUMBER        0.000    1.000    4.444

 TRANSPORT PROPERTIES (GASES ONLY)
   CONDUCTIVITY IN UNITS OF MILLIWATTS/(CM)(K)

 VISC,MILLIPOISE  0.93028  0.87802  0.35922

  WITH EQUILIBRIUM REACTIONS

 Cp, KJ/(KG)(K)    6.4199   5.7229   3.2578
 CONDUCTIVITY     11.6829   9.4662   1.9571
 PRANDTL NUMBER    0.5112   0.5308   0.5980

  WITH FROZEN REACTIONS

 Cp, KJ/(KG)(K)    4.3899   4.3281   3.2578
 CONDUCTIVITY      6.1195   5.6756   1.9571
 PRANDTL NUMBER    0.6674   0.6696   0.5980

 PERFORMANCE PARAMETERS

 Ae/At                      1.0000   40.000
 CSTAR, M/SEC               2398.2   2398.2
 CF                         0.6704   1.7906
 Ivac, M/SEC                2970.5   4461.6
 Isp, M/SEC                 1607.8   4294.2


 MOLE FRACTIONS

 *H               0.01822  0.01178  0.00000
 *H2              0.42292  0.42613  0.43301
 H2O              0.54916  0.55685  0.56699
 *O               0.00022  0.00008  0.00000
 *OH              0.00936  0.00511  0.00000
 *O2              0.00011  0.00004  0.00000

  * THERMODYNAMIC PROPERTIES FITTED TO 20000.K

 NOTE. WEIGHT FRACTION OF FUEL IN TOTAL FUELS AND OF OXIDANT IN TOTAL OXIDANTS










              THEORETICAL ROCKET PERFORMANCE ASSUMING EQUILIBRIUM

           COMPOSITION DURING EXPANSION FROM INFINITE AREA COMBUSTOR

 Pin =  1015.3 PSIA
 CASE =                

             REACTANT                    WT FRACTION      ENERGY      TEMP
                                          (SEE NOTE)     KJ/KG-MOL      K  
 OXIDANT     O2(L)                        1.0000000    -12979.000     90.000
 FUEL        H2(L)                        1.0000000     -9012.000     20.000

 O/F=    5.00000  %FUEL= 16.666667  R,EQ.RATIO= 1.587337  PHI,EQ.RATIO= 1.587337

                 CHAMBER   THROAT     EXIT
 Pinf/P            1.0000   1.7496   530.45
 P, BAR            70.000   40.009  0.13196
 T, K             3283.71  3062.53  1114.21
 RHO, KG/CU M    3.0303 0 1.8713 0 1.7229-2
 H, KJ/KG        -1083.09 -2326.78 -10252.4
 U, KJ/KG        -3393.06 -4464.85 -11018.3
 G, KJ/KG        -64752.2 -61707.2 -31856.2
 S, KJ/(KG)(K)    19.3894  19.3894  19.3894

 M, (1/n)          11.819   11.910   12.095
 (dLV/dLP)t      -1.01193 -1.00794 -1.00000
 (dLV/dLT)p        1.2212   1.1568   1.0000
 Cp, KJ/(KG)(K)    7.0731   6.2956   3.1638
 GAMMAs            1.1579   1.1634   1.2776
 SON VEL,M/SEC     1635.5   1577.2    989.2
 MACH NUMBER        0.000    1.000    4.329

 TRANSPORT PROPERTIES (GASES ONLY)
   CONDUCTIVITY IN UNITS OF MILLIWATTS/(CM)(K)

 VISC,MILLIPOISE  0.98228  0.93305  0.41474

  WITH EQUILIBRIUM REACTIONS

 Cp, KJ/(KG)(K)    7.0731   6.2956   3.1638
 CONDUCTIVITY     13.6470  11.3258   2.0557
 PRANDTL NUMBER    0.5091   0.5186   0.6383

  WITH FROZEN REACTIONS

 Cp, KJ/(KG)(K)    4.1601   4.1111   3.1638
 CONDUCTIVITY      5.9970   5.6033   2.0557
 PRANDTL NUMBER    0.6814   0.6846   0.6383

 PERFORMANCE PARAMETERS

 Ae/At                      1.0000   40.000
 CSTAR, M/SEC               2371.8   2371.8
 CF                         0.6649   1.8055
 Ivac, M/SEC                2932.8   4461.2
 Isp, M/SEC                 1577.1   4282.4


 MOLE FRACTIONS

 *H               0.02515  0.01815  0.00000
 *H2              0.35968  0.36175  0.37001
 H2O              0.59585  0.60807  0.62999
 *O               0.00070  0.00032  0.00000
 *OH              0.01816  0.01149  0.00000
 *O2              0.00045  0.00021  0.00000

  * THERMODYNAMIC PROPERTIES FITTED TO 20000.K

 NOTE. WEIGHT FRACTION OF FUEL IN TOTAL FUELS AND OF OXIDANT IN TOTAL OXIDANTS










              THEORETICAL ROCKET PERFORMANCE ASSUMING EQUILIBRIUM

           COMPOSITION DURING EXPANSION FROM INFINITE AREA COMBUSTOR

 Pin =  1015.3 PSIA
 CASE =                

             REACTANT                    WT FRACTION      ENERGY      TEMP
                                          (SEE NOTE)     KJ/KG-MOL      K  
 OXIDANT     O2(L)                        1.0000000    -12979.000     90.000
 FUEL        H2(L)                        1.0000000     -9012.000     20.000

 O/F=    5.50000  %FUEL= 15.384615  R,EQ.RATIO= 1.443033  PHI,EQ.RATIO= 1.443033

                 CHAMBER   THROAT     EXIT
 Pinf/P            1.0000   1.7414   492.87
 P, BAR            70.000   40.197  0.14203
 T, K             3399.77  3193.91  1275.08
 RHO, KG/CU M    3.1361 0 1.9350 0 1.7554-2
 H, KJ/KG        -1030.98 -2225.80 -10105.3
 U, KJ/KG        -3263.08 -4303.16 -10914.4
 G, KJ/KG        -64131.2 -61505.2 -33771.0
 S, KJ/(KG)(K)    18.5602  18.5602  18.5602

 M, (1/n)          12.664   12.783   13.103
 (dLV/dLP)t      -1.01799 -1.01297 -1.00000
 (dLV/dLT)p        1.3260   1.2494   1.0000
 Cp, KJ/(KG)(K)    7.8711   7.0675   3.1015
 GAMMAs            1.1477   1.1503   1.2572
 SON VEL,M/SEC     1600.5   1545.9   1008.6
 MACH NUMBER        0.000    1.000    4.224

 TRANSPORT PROPERTIES (GASES ONLY)
   CONDUCTIVITY IN UNITS OF MILLIWATTS/(CM)(K)

 VISC,MILLIPOISE   1.0251  0.97882  0.47085

  WITH EQUILIBRIUM REACTIONS

 Cp, KJ/(KG)(K)    7.8711   7.0675   3.1015
 CONDUCTIVITY     15.5365  13.2459   2.1570
 PRANDTL NUMBER    0.5193   0.5223   0.6770

  WITH FROZEN REACTIONS

 Cp, KJ/(KG)(K)    3.9577   3.9180   3.1012
 CONDUCTIVITY      5.8377   5.4862   2.1564
 PRANDTL NUMBER    0.6949   0.6990   0.6772

 PERFORMANCE PARAMETERS

 Ae/At                      1.0000   40.000
 CSTAR, M/SEC               2340.2   2340.2
 CF                         0.6606   1.8204
 Ivac, M/SEC                2889.7   4450.0
 Isp, M/SEC                 1545.8   4260.1


 MOLE FRACTIONS

 *H               0.03069  0.02395  0.00000
 HO2              0.00001  0.00001  0.00000
 *H2              0.30094  0.30079  0.30701
 H2O              0.63507  0.65214  0.69298
 H2O2             0.00001  0.00000  0.00000
 *O               0.00168  0.00094  0.00000
 *OH              0.03022  0.02138  0.00000
 *O2              0.00137  0.00080  0.00000

  * THERMODYNAMIC PROPERTIES FITTED TO 20000.K

 NOTE. WEIGHT FRACTION OF FUEL IN TOTAL FUELS AND OF OXIDANT IN TOTAL OXIDANTS










              THEORETICAL ROCKET PERFORMANCE ASSUMING EQUILIBRIUM

           COMPOSITION DURING EXPANSION FROM INFINITE AREA COMBUSTOR

 Pin =  1015.3 PSIA
 CASE =                

             REACTANT                    WT FRACTION      ENERGY      TEMP
                                          (SEE NOTE)     KJ/KG-MOL      K  
 OXIDANT     O2(L)                        1.0000000    -12979.000     90.000
 FUEL        H2(L)                        1.0000000     -9012.000     20.000

 O/F=    6.00000  %FUEL= 14.285714  R,EQ.RATIO= 1.322780  PHI,EQ.RATIO= 1.322780

                 CHAMBER   THROAT     EXIT
 Pinf/P            1.0000   1.7352   459.24
 P, BAR            70.000   40.341  0.15242
 T, K             3485.02  3292.37  1440.64
 RHO, KG/CU M    3.2517 0 2.0053 0 1.7957-2
 H, KJ/KG         -986.31 -2133.44 -9927.67
 U, KJ/KG        -3139.02 -4145.13 -10776.5
 G, KJ/KG        -63135.1 -60846.7 -35618.8
 S, KJ/(KG)(K)    17.8331  17.8331  17.8331

 M, (1/n)          13.460   13.608   14.111
 (dLV/dLP)t      -1.02516 -1.01946 -1.00000
 (dLV/dLT)p        1.4478   1.3666   1.0001
 Cp, KJ/(KG)(K)    8.7435   8.0004   3.0574
 GAMMAs            1.1402   1.1405   1.2388
 SON VEL,M/SEC     1566.7   1514.7   1025.5
 MACH NUMBER        0.000    1.000    4.124

 TRANSPORT PROPERTIES (GASES ONLY)
   CONDUCTIVITY IN UNITS OF MILLIWATTS/(CM)(K)

 VISC,MILLIPOISE   1.0591   1.0155  0.52735

  WITH EQUILIBRIUM REACTIONS

 Cp, KJ/(KG)(K)    8.7435   8.0004   3.0574
 CONDUCTIVITY     17.2928  15.1329   2.2635
 PRANDTL NUMBER    0.5355   0.5369   0.7123

  WITH FROZEN REACTIONS

 Cp, KJ/(KG)(K)    3.7781   3.7450   3.0549
 CONDUCTIVITY      5.6581   5.3401   2.2580
 PRANDTL NUMBER    0.7072   0.7122   0.7134

 PERFORMANCE PARAMETERS

 Ae/At                      1.0000   40.000
 CSTAR, M/SEC               2304.6   2304.6
 CF                         0.6572   1.8350
 Ivac, M/SEC                2842.8   4429.5
 Isp, M/SEC                 1514.7   4228.8


 MOLE FRACTIONS

 *H               0.03404  0.02798  0.00001
 HO2              0.00003  0.00002  0.00000
 *H2              0.24831  0.24537  0.24401
 H2O              0.66619  0.68776  0.75598
 H2O2             0.00001  0.00001  0.00000
 *O               0.00332  0.00215  0.00000
 *OH              0.04467  0.03436  0.00000
 *O2              0.00343  0.00235  0.00000

  * THERMODYNAMIC PROPERTIES FITTED TO 20000.K

 NOTE. WEIGHT FRACTION OF FUEL IN TOTAL FUELS AND OF OXIDANT IN TOTAL OXIDANTS










              THEORETICAL ROCKET PERFORMANCE ASSUMING EQUILIBRIUM

           COMPOSITION DURING EXPANSION FROM INFINITE AREA COMBUSTOR

 Pin =  1015.3 PSIA
 CASE =                

             REACTANT                    WT FRACTION      ENERGY      TEMP
                                          (SEE NOTE)     KJ/KG-MOL      K  
 OXIDANT     O2(L)                        1.0000000    -12979.000     90.000
 FUEL        H2(L)                        1.0000000     -9012.000     20.000

 O/F=    6.50000  %FUEL= 13.333333  R,EQ.RATIO= 1.221028  PHI,EQ.RATIO= 1.221028

                 CHAMBER   THROAT     EXIT
 Pinf/P            1.0000   1.7309   428.43
 P, BAR            70.000   40.442  0.16339
 T, K             3542.77  3360.14  1611.46
 RHO, KG/CU M    3.3757 0 2.0811 0 1.8436-2
 H, KJ/KG         -947.59 -2049.05 -9719.85
 U, KJ/KG        -3021.22 -3992.30 -10606.1
 G, KJ/KG        -61848.2 -59810.4 -37421.0
 S, KJ/(KG)(K)    17.1901  17.1901  17.1901

 M, (1/n)          14.205   14.377   15.119
 (dLV/dLP)t      -1.03253 -1.02678 -1.00002
 (dLV/dLT)p        1.5711   1.4963   1.0007
 Cp, KJ/(KG)(K)    9.5346   8.9505   3.0306
 GAMMAs            1.1351   1.1336   1.2220
 SON VEL,M/SEC     1534.2   1484.2   1040.7
 MACH NUMBER        0.000    1.000    4.025

 TRANSPORT PROPERTIES (GASES ONLY)
   CONDUCTIVITY IN UNITS OF MILLIWATTS/(CM)(K)

 VISC,MILLIPOISE   1.0849   1.0434  0.58430

  WITH EQUILIBRIUM REACTIONS

 Cp, KJ/(KG)(K)    9.5346   8.9505   3.0306
 CONDUCTIVITY     18.8468  16.9034   2.3923
 PRANDTL NUMBER    0.5489   0.5525   0.7402

  WITH FROZEN REACTIONS

 Cp, KJ/(KG)(K)    3.6178   3.5892   3.0171
 CONDUCTIVITY      5.4701   5.1775   2.3621
 PRANDTL NUMBER    0.7176   0.7234   0.7463

 PERFORMANCE PARAMETERS

 Ae/At                      1.0000   40.000
 CSTAR, M/SEC               2266.2   2266.2
 CF                         0.6549   1.8483
 Ivac, M/SEC                2793.5   4400.2
 Isp, M/SEC                 1484.2   4188.6


 MOLE FRACTIONS

 *H               0.03503  0.02969  0.00006
 HO2              0.00006  0.00003  0.00000
 *H2              0.20286  0.19723  0.18099
 H2O              0.68912  0.71428  0.81894
 H2O2             0.00002  0.00001  0.00000
 *O               0.00560  0.00404  0.00000
 *OH              0.06001  0.04905  0.00001
 *O2              0.00730  0.00566  0.00000

  * THERMODYNAMIC PROPERTIES FITTED TO 20000.K

 NOTE. WEIGHT FRACTION OF FUEL IN TOTAL FUELS AND OF OXIDANT IN TOTAL OXIDANTS










              THEORETICAL ROCKET PERFORMANCE ASSUMING EQUILIBRIUM

           COMPOSITION DURING EXPANSION FROM INFINITE AREA COMBUSTOR

 Pin =  1015.3 PSIA
 CASE =                

             REACTANT                    WT FRACTION      ENERGY      TEMP
                                          (SEE NOTE)     KJ/KG-MOL      K  
 OXIDANT     O2(L)                        1.0000000    -12979.000     90.000
 FUEL        H2(L)                        1.0000000     -9012.000     20.000

 O/F=    7.00000  %FUEL= 12.500000  R,EQ.RATIO= 1.133812  PHI,EQ.RATIO= 1.133812

                 CHAMBER   THROAT     EXIT
 Pinf/P            1.0000   1.7283   399.56
 P, BAR            70.000   40.503  0.17519
 T, K             3576.91  3400.70  1788.65
 RHO, KG/CU M    3.5064 0 2.1613 0 1.8994-2
 H, KJ/KG         -913.72 -1972.07 -9477.96
 U, KJ/KG        -2910.08 -3846.08 -10400.3
 G, KJ/KG        -60352.5 -58482.7 -39200.7
 S, KJ/(KG)(K)    16.6174  16.6174  16.6174

 M, (1/n)          14.897   15.088   16.124
 (dLV/dLP)t      -1.03856 -1.03327 -1.00010
 (dLV/dLT)p        1.6708   1.6095   1.0035
 Cp, KJ/(KG)(K)   10.0391   9.6500   3.0446
 GAMMAs            1.1320   1.1295   1.2055
 SON VEL,M/SEC     1503.3   1454.9   1054.5
 MACH NUMBER        0.000    1.000    3.925

 TRANSPORT PROPERTIES (GASES ONLY)
   CONDUCTIVITY IN UNITS OF MILLIWATTS/(CM)(K)

 VISC,MILLIPOISE   1.1032   1.0630  0.64194

  WITH EQUILIBRIUM REACTIONS

 Cp, KJ/(KG)(K)   10.0391   9.6500   3.0446
 CONDUCTIVITY     20.0770  18.4037   2.5954
 PRANDTL NUMBER    0.5516   0.5574   0.7530

  WITH FROZEN REACTIONS

 Cp, KJ/(KG)(K)    3.4742   3.4486   2.9840
 CONDUCTIVITY      5.2823   5.0084   2.4718
 PRANDTL NUMBER    0.7256   0.7319   0.7749

 PERFORMANCE PARAMETERS

 Ae/At                      1.0000   40.000
 CSTAR, M/SEC               2226.2   2226.2
 CF                         0.6535   1.8591
 Ivac, M/SEC                2743.0   4361.5
 Isp, M/SEC                 1454.9   4138.7


 MOLE FRACTIONS

 *H               0.03405  0.02924  0.00027
 HO2              0.00010  0.00006  0.00000
 *H2              0.16494  0.15726  0.11794
 H2O              0.70441  0.73189  0.88165
 H2O2             0.00002  0.00001  0.00000
 *O               0.00830  0.00644  0.00000
 *OH              0.07460  0.06352  0.00015
 *O2              0.01358  0.01158  0.00000

  * THERMODYNAMIC PROPERTIES FITTED TO 20000.K

 NOTE. WEIGHT FRACTION OF FUEL IN TOTAL FUELS AND OF OXIDANT IN TOTAL OXIDANTS










              THEORETICAL ROCKET PERFORMANCE ASSUMING EQUILIBRIUM

           COMPOSITION DURING EXPANSION FROM INFINITE AREA COMBUSTOR

 Pin =  1015.3 PSIA
 CASE =                

             REACTANT                    WT FRACTION      ENERGY      TEMP
                                          (SEE NOTE)     KJ/KG-MOL      K  
 OXIDANT     O2(L)                        1.0000000    -12979.000     90.000
 FUEL        H2(L)                        1.0000000     -9012.000     20.000

 O/F=    7.50000  %FUEL= 11.764706  R,EQ.RATIO= 1.058224  PHI,EQ.RATIO= 1.058224

                 CHAMBER   THROAT     EXIT
 Pinf/P            1.0000   1.7270   372.27
 P, BAR            70.000   40.532  0.18803
 T, K             3591.98  3418.98  1970.55
 RHO, KG/CU M    3.6418 0 2.2445 0 1.9643-2
 H, KJ/KG         -883.83 -1901.86 -9191.10
 U, KJ/KG        -2805.95 -3707.69 -10148.3
 G, KJ/KG        -58728.4 -56960.5 -40924.5
 S, KJ/(KG)(K)    16.1038  16.1038  16.1038

 M, (1/n)          15.538   15.742   17.116
 (dLV/dLP)t      -1.04196 -1.03711 -1.00060
 (dLV/dLT)p        1.7265   1.6759   1.0192
 Cp, KJ/(KG)(K)   10.1356   9.8773   3.2547
 GAMMAs            1.1305   1.1275   1.1827
 SON VEL,M/SEC     1474.1   1426.9   1064.0
 MACH NUMBER        0.000    1.000    3.831

 TRANSPORT PROPERTIES (GASES ONLY)
   CONDUCTIVITY IN UNITS OF MILLIWATTS/(CM)(K)

 VISC,MILLIPOISE   1.1149   1.0752  0.69975

  WITH EQUILIBRIUM REACTIONS

 Cp, KJ/(KG)(K)   10.1356   9.8773   3.2547
 CONDUCTIVITY     20.8407  19.4173   3.0444
 PRANDTL NUMBER    0.5422   0.5469   0.7481

  WITH FROZEN REACTIONS

 Cp, KJ/(KG)(K)    3.3452   3.3214   2.9522
 CONDUCTIVITY      5.1005   4.8403   2.5876
 PRANDTL NUMBER    0.7312   0.7378   0.7984

 PERFORMANCE PARAMETERS

 Ae/At                      1.0000   40.000
 CSTAR, M/SEC               2185.6   2185.6
 CF                         0.6529   1.8649
 Ivac, M/SEC                2692.5   4310.9
 Isp, M/SEC                 1426.9   4076.1


 MOLE FRACTIONS

 *H               0.03172  0.02725  0.00072
 HO2              0.00015  0.00010  0.00000
 *H2              0.13416  0.12531  0.05543
 H2O              0.71308  0.74165  0.94245
 H2O2             0.00003  0.00002  0.00000
 *O               0.01110  0.00901  0.00001
 *OH              0.08717  0.07607  0.00131
 *O2              0.02259  0.02058  0.00008

  * THERMODYNAMIC PROPERTIES FITTED TO 20000.K

 NOTE. WEIGHT FRACTION OF FUEL IN TOTAL FUELS AND OF OXIDANT IN TOTAL OXIDANTS










              THEORETICAL ROCKET PERFORMANCE ASSUMING EQUILIBRIUM

           COMPOSITION DURING EXPANSION FROM INFINITE AREA COMBUSTOR

 Pin =  1015.3 PSIA
 CASE =                

             REACTANT                    WT FRACTION      ENERGY      TEMP
                                          (SEE NOTE)     KJ/KG-MOL      K  
 OXIDANT     O2(L)                        1.0000000    -12979.000     90.000
 FUEL        H2(L)                        1.0000000     -9012.000     20.000

 O/F=    8.00000  %FUEL= 11.111111  R,EQ.RATIO= 0.992085  PHI,EQ.RATIO= 0.992085

                 CHAMBER   THROAT     EXIT
 Pinf/P            1.0000   1.7266   358.43
 P, BAR            70.000   40.542  0.19530
 T, K             3592.56  3420.53  2066.20
 RHO, KG/CU M    3.7801 0 2.3297 0 2.0380-2
 H, KJ/KG         -857.26 -1837.76 -8864.94
 U, KJ/KG        -2709.05 -3578.00 -9823.23
 G, KJ/KG        -57047.9 -55337.7 -41182.1
 S, KJ/(KG)(K)    15.6408  15.6408  15.6408

 M, (1/n)          16.131   16.343   17.927
 (dLV/dLP)t      -1.04256 -1.03784 -1.00310
 (dLV/dLT)p        1.7369   1.6890   1.0942
 Cp, KJ/(KG)(K)    9.8704   9.6482   4.2257
 GAMMAs            1.1299   1.1269   1.1472
 SON VEL,M/SEC     1446.5   1400.4   1048.5
 MACH NUMBER        0.000    1.000    3.817

 TRANSPORT PROPERTIES (GASES ONLY)
   CONDUCTIVITY IN UNITS OF MILLIWATTS/(CM)(K)

 VISC,MILLIPOISE   1.1213   1.0814  0.73141

  WITH EQUILIBRIUM REACTIONS

 Cp, KJ/(KG)(K)    9.8704   9.6482   4.2257
 CONDUCTIVITY     21.0559  19.7900   4.8090
 PRANDTL NUMBER    0.5256   0.5272   0.6427

  WITH FROZEN REACTIONS

 Cp, KJ/(KG)(K)    3.2290   3.2062   2.8877
 CONDUCTIVITY      4.9277   4.6780   2.6049
 PRANDTL NUMBER    0.7347   0.7412   0.8108

 PERFORMANCE PARAMETERS

 Ae/At                      1.0000   40.000
 CSTAR, M/SEC               2145.7   2145.7
 CF                         0.6526   1.8651
 Ivac, M/SEC                2643.1   4241.4
 Isp, M/SEC                 1400.4   4001.9


 MOLE FRACTIONS

 *H               0.02871  0.02448  0.00061
 HO2              0.00021  0.00014  0.00000
 *H2              0.10961  0.10038  0.01146
 H2O              0.71645  0.74517  0.97307
 H2O2             0.00004  0.00003  0.00000
 *O               0.01369  0.01139  0.00022
 *OH              0.09704  0.08578  0.00656
 *O2              0.03425  0.03264  0.00807

  * THERMODYNAMIC PROPERTIES FITTED TO 20000.K

 NOTE. WEIGHT FRACTION OF FUEL IN TOTAL FUELS AND OF OXIDANT IN TOTAL OXIDANTS










              THEORETICAL ROCKET PERFORMANCE ASSUMING EQUILIBRIUM

           COMPOSITION DURING EXPANSION FROM INFINITE AREA COMBUSTOR

 Pin =  1015.3 PSIA
 CASE =                

             REACTANT                    WT FRACTION      ENERGY      TEMP
                                          (SEE NOTE)     KJ/KG-MOL      K  
 OXIDANT     O2(L)                        1.0000000    -12979.000     90.000
 FUEL        H2(L)                        1.0000000     -9012.000     20.000

 O/F=    8.50000  %FUEL= 10.526316  R,EQ.RATIO= 0.933727  PHI,EQ.RATIO= 0.933727

                 CHAMBER   THROAT     EXIT
 Pinf/P            1.0000   1.7267   364.89
 P, BAR            70.000   40.539  0.19184
 T, K             3582.73  3410.39  2010.61
 RHO, KG/CU M    3.9197 0 2.4156 0 2.1139-2
 H, KJ/KG         -833.49 -1779.17 -8552.04
 U, KJ/KG        -2619.34 -3457.35 -9459.55
 G, KJ/KG        -55367.3 -53689.7 -39156.1
 S, KJ/(KG)(K)    15.2213  15.2213  15.2213

 M, (1/n)          16.680   16.897   18.421
 (dLV/dLP)t      -1.04113 -1.03634 -1.00157
 (dLV/dLT)p        1.7150   1.6646   1.0509
 Cp, KJ/(KG)(K)    9.3889   9.1480   3.5307
 GAMMAs            1.1300   1.1270   1.1623
 SON VEL,M/SEC     1420.6   1375.3   1027.0
 MACH NUMBER        0.000    1.000    3.826

 TRANSPORT PROPERTIES (GASES ONLY)
   CONDUCTIVITY IN UNITS OF MILLIWATTS/(CM)(K)

 VISC,MILLIPOISE   1.1235   1.0832  0.71783

  WITH EQUILIBRIUM REACTIONS

 Cp, KJ/(KG)(K)    9.3889   9.1480   3.5307
 CONDUCTIVITY     20.7519  19.5337   3.9062
 PRANDTL NUMBER    0.5083   0.5073   0.6488

  WITH FROZEN REACTIONS

 Cp, KJ/(KG)(K)    3.1239   3.1019   2.7768
 CONDUCTIVITY      4.7653   4.5239   2.4627
 PRANDTL NUMBER    0.7365   0.7427   0.8094

 PERFORMANCE PARAMETERS

 Ae/At                      1.0000   40.000
 CSTAR, M/SEC               2107.1   2107.1
 CF                         0.6527   1.8647
 Ivac, M/SEC                2595.5   4160.0
 Isp, M/SEC                 1375.3   3929.0


 MOLE FRACTIONS

 *H               0.02550  0.02148  0.00024
 HO2              0.00027  0.00019  0.00000
 *H2              0.09020  0.08111  0.00368
 H2O              0.71581  0.74407  0.95446
 H2O2             0.00005  0.00003  0.00000
 *O               0.01586  0.01334  0.00031
 *OH              0.10412  0.09249  0.00722
 *O2              0.04820  0.04728  0.03408

  * THERMODYNAMIC PROPERTIES FITTED TO 20000.K

 NOTE. WEIGHT FRACTION OF FUEL IN TOTAL FUELS AND OF OXIDANT IN TOTAL OXIDANTS










              THEORETICAL ROCKET PERFORMANCE ASSUMING EQUILIBRIUM

           COMPOSITION DURING EXPANSION FROM INFINITE AREA COMBUSTOR

 Pin =  1015.3 PSIA
 CASE =                

             REACTANT                    WT FRACTION      ENERGY      TEMP
                                          (SEE NOTE)     KJ/KG-MOL      K  
 OXIDANT     O2(L)                        1.0000000    -12979.000     90.000
 FUEL        H2(L)                        1.0000000     -9012.000     20.000

 O/F=    9.00000  %FUEL= 10.000000  R,EQ.RATIO= 0.881854  PHI,EQ.RATIO= 0.881854

                 CHAMBER   THROAT     EXIT
 Pinf/P            1.0000   1.7271   372.62
 P, BAR            70.000   40.530  0.18786
 T, K             3565.70  3392.44  1943.00
 RHO, KG/CU M    4.0593 0 2.5017 0 2.1915-2
 H, KJ/KG         -812.10 -1725.52 -8251.54
 U, KJ/KG        -2536.53 -3345.62 -9108.75
 G, KJ/KG        -53725.3 -52067.5 -37084.7
 S, KJ/(KG)(K)    14.8395  14.8395  14.8395

 M, (1/n)          17.192   17.410   18.846
 (dLV/dLP)t      -1.03861 -1.03373 -1.00089
 (dLV/dLT)p        1.6761   1.6221   1.0307
 Cp, KJ/(KG)(K)    8.8260   8.5535   3.1487
 GAMMAs            1.1304   1.1276   1.1737
 SON VEL,M/SEC     1396.1   1351.6   1003.0
 MACH NUMBER        0.000    1.000    3.846

 TRANSPORT PROPERTIES (GASES ONLY)
   CONDUCTIVITY IN UNITS OF MILLIWATTS/(CM)(K)

 VISC,MILLIPOISE   1.1228   1.0818  0.70045

  WITH EQUILIBRIUM REACTIONS

 Cp, KJ/(KG)(K)    8.8260   8.5535   3.1487
 CONDUCTIVITY     20.0461  18.7987   3.1317
 PRANDTL NUMBER    0.4943   0.4922   0.7043

  WITH FROZEN REACTIONS

 Cp, KJ/(KG)(K)    3.0287   3.0072   2.6714
 CONDUCTIVITY      4.6134   4.3789   2.3199
 PRANDTL NUMBER    0.7371   0.7429   0.8066

 PERFORMANCE PARAMETERS

 Ae/At                      1.0000   40.000
 CSTAR, M/SEC               2070.2   2070.2
 CF                         0.6529   1.8633
 Ivac, M/SEC                2550.3   4079.5
 Isp, M/SEC                 1351.6   3857.3


 MOLE FRACTIONS

 *H               0.02238  0.01859  0.00010
 HO2              0.00033  0.00023  0.00000
 *H2              0.07484  0.06620  0.00160
 H2O              0.71227  0.73976  0.93026
 H2O2             0.00005  0.00004  0.00000
 *O               0.01753  0.01478  0.00024
 *OH              0.10867  0.09653  0.00596
 *O2              0.06394  0.06389  0.06184

  * THERMODYNAMIC PROPERTIES FITTED TO 20000.K

 NOTE. WEIGHT FRACTION OF FUEL IN TOTAL FUELS AND OF OXIDANT IN TOTAL OXIDANTS










              THEORETICAL ROCKET PERFORMANCE ASSUMING EQUILIBRIUM

           COMPOSITION DURING EXPANSION FROM INFINITE AREA COMBUSTOR

 Pin =  1015.3 PSIA
 CASE =                

             REACTANT                    WT FRACTION      ENERGY      TEMP
                                          (SEE NOTE)     KJ/KG-MOL      K  
 OXIDANT     O2(L)                        1.0000000    -12979.000     90.000
 FUEL        H2(L)                        1.0000000     -9012.000     20.000

 O/F=    9.50000  %FUEL=  9.523810  R,EQ.RATIO= 0.835440  PHI,EQ.RATIO= 0.835440

                 CHAMBER   THROAT     EXIT
 Pinf/P            1.0000   1.7276   380.31
 P, BAR            70.000   40.518  0.18406
 T, K             3543.84  3369.42  1876.34
 RHO, KG/CU M    4.1980 0 2.5873 0 2.2696-2
 H, KJ/KG         -792.74 -1676.32 -7968.99
 U, KJ/KG        -2460.18 -3242.37 -8779.94
 G, KJ/KG        -52144.8 -50500.9 -35158.1
 S, KJ/(KG)(K)    14.4905  14.4905  14.4905

 M, (1/n)          17.671   17.889   19.238
 (dLV/dLP)t      -1.03570 -1.03080 -1.00054
 (dLV/dLT)p        1.6310   1.5742   1.0198
 Cp, KJ/(KG)(K)    8.2635   7.9645   2.8958
 GAMMAs            1.1309   1.1284   1.1830
 SON VEL,M/SEC     1373.2   1329.3    979.5
 MACH NUMBER        0.000    1.000    3.868

 TRANSPORT PROPERTIES (GASES ONLY)
   CONDUCTIVITY IN UNITS OF MILLIWATTS/(CM)(K)

 VISC,MILLIPOISE   1.1199   1.0783  0.68327

  WITH EQUILIBRIUM REACTIONS

 Cp, KJ/(KG)(K)    8.2635   7.9645   2.8958
 CONDUCTIVITY     19.0836  17.7749   2.6730
 PRANDTL NUMBER    0.4849   0.4832   0.7402

  WITH FROZEN REACTIONS

 Cp, KJ/(KG)(K)    2.9421   2.9209   2.5748
 CONDUCTIVITY      4.4716   4.2430   2.1875
 PRANDTL NUMBER    0.7368   0.7423   0.8042

 PERFORMANCE PARAMETERS

 Ae/At                      1.0000   40.000
 CSTAR, M/SEC               2035.2   2035.2
 CF                         0.6532   1.8614
 Ivac, M/SEC                2507.4   4002.5
 Isp, M/SEC                 1329.3   3788.5


 MOLE FRACTIONS

 *H               0.01951  0.01596  0.00004
 HO2              0.00038  0.00027  0.00000
 *H2              0.06261  0.05455  0.00075
 H2O              0.70669  0.73326  0.90581
 H2O2             0.00006  0.00004  0.00000
 *O               0.01869  0.01572  0.00017
 *OH              0.11109  0.09838  0.00454
 *O2              0.08097  0.08183  0.08868

  * THERMODYNAMIC PROPERTIES FITTED TO 20000.K

 NOTE. WEIGHT FRACTION OF FUEL IN TOTAL FUELS AND OF OXIDANT IN TOTAL OXIDANTS



