
 *******************************************************************************

         NASA-GLENN CHEMICAL EQUILIBRIUM PROGRAM CEA2, MAY 21, 2004
                   BY  BONNIE MCBRIDE AND SANFORD GORDON
      REFS: NASA RP-1311, PART I, 1994 AND NASA RP-1311, PART II, 1996

 *******************************************************************************



 problem   case=exam o/f=7,7.2,7.4,7.6,7.8,8,8.2,8.4,8.6,8.8,
       hp   p,bar=100,10,1,  t,k=3800
 react
   oxid=Air wt=1 t,k=700.0
   fuel=C7H8(L) wt=.4 t,k=298.15
   fuel=C8H18(L),n-octa wt=.6 t,k=298.15
 omit
   CCN CNC C2N2 C2O C3H4,allene C3H4,propyne C3H4,cyclo- C3 C3H5,allyl
   C3H6,propylene C3H6,cyclo- C3H3,propargyl C3H6O C3H7,n-propyl
   C3H7,i-propyl Jet-A(g) C3O2 C4 C4H2 C3H8O,2propanol C4H4,1,3-cyclo-
   C4H6,butadiene C4H6,2-butyne C3H8O,1propanol C4H8,tr2-butene
   C4H8,isobutene C4H8,cyclo- C4H6,cyclo- (CH3COOH)2 C4H9,n-butyl
   C4H9,i-butyl C4H8,1-butene C4H9,s-butyl C4H9,t-butyl C4H10,isobutane
   C4H8,cis2-buten C4H10,n-butane C4N2 C5 C3H8 C5H6,1,3cyclo-
   C5H8,cyclo- C5H10,1-pentene C10H21,n-decyl C5H10,cyclo- C5H11,pentyl
   C5H11,t-pentyl C12H10,biphenyl C5H12,n-pentane C5H12,i-pentane
   CH3C(CH3)2CH3 C12H9,o-bipheny C6H6 C6H5OH,phenol C6H10,cyclo- C6H2
   C6H12,1-hexene C6H12,cyclo- C6H13,n-hexyl C6H5,phenyl C7H7,benzyl
   C7H8 C7H8O,cresol-mx C6H5O,phenoxy C7H14,1-heptene C7H15,n-heptyl
   C7H16,n-heptane C10H8,azulene C8H8,styrene C8H10,ethylbenz
   C8H16,1-octene C10H8,napthlene C8H17,n-octyl C8H18,isooctane
   C8H18,n-octane C9H19,n-nonyl Jet-A(L) C6H6(L) H2O(s) H2O(L)
 output  short
 end




         THERMODYNAMIC EQUILIBRIUM COMBUSTION PROPERTIES AT ASSIGNED

                                   PRESSURES

 CASE = exam           

             REACTANT                    WT FRACTION      ENERGY      TEMP
                                          (SEE NOTE)     KJ/KG-MOL      K  
 OXIDANT     Air                          1.0000000     11897.374    700.000
 FUEL        C7H8(L)                      0.4000000     12179.997    298.150
 FUEL        C8H18(L),n-octa              0.6000000   -250260.000    298.150

 O/F=    7.00000  %FUEL= 12.500000  R,EQ.RATIO= 2.067144  PHI,EQ.RATIO= 2.068769

 THERMODYNAMIC PROPERTIES

 P, BAR            100.00   10.000   1.0000
 T, K             1838.90  1838.43  1837.64
 RHO, KG/CU M    1.5950 1 1.5951 0 1.5957-1
 H, KJ/KG          201.70   201.70   201.70
 U, KJ/KG         -425.27  -425.20  -424.98
 G, KJ/KG        -16039.0 -17478.3 -18913.7
 S, KJ/(KG)(K)     8.8318   9.6169  10.4021

 M, (1/n)          24.387   24.383   24.381
 (dLV/dLP)t      -1.00018 -1.00003 -1.00005
 (dLV/dLT)p        1.0009   1.0005   1.0014
 Cp, KJ/(KG)(K)    1.5322   1.5338   1.5433
 GAMMAs            1.2866   1.2862   1.2846
 SON VEL,M/SEC      898.1    898.0    897.2

 MOLE FRACTIONS

 *Ar              0.00690  0.00690  0.00690
 CH4              0.00001  0.00000  0.00000
 *CO              0.19693  0.19696  0.19693
 *CO2             0.02399  0.02397  0.02398
 *H               0.00002  0.00006  0.00018
 HCN              0.00002  0.00000  0.00000
 *H2              0.13266  0.13280  0.13277
 H2O              0.06418  0.06416  0.06413
 NH3              0.00010  0.00001  0.00000
 *N2              0.57517  0.57514  0.57510
 *OH              0.00000  0.00000  0.00001

  * THERMODYNAMIC PROPERTIES FITTED TO 20000.K

 NOTE. WEIGHT FRACTION OF FUEL IN TOTAL FUELS AND OF OXIDANT IN TOTAL OXIDANTS









         THERMODYNAMIC EQUILIBRIUM COMBUSTION PROPERTIES AT ASSIGNED

                                   PRESSURES

 CASE = exam           

             REACTANT                    WT FRACTION      ENERGY      TEMP
                                          (SEE NOTE)     KJ/KG-MOL      K  
 OXIDANT     Air                          1.0000000     11897.374    700.000
 FUEL        C7H8(L)                      0.4000000     12179.997    298.150
 FUEL        C8H18(L),n-octa              0.6000000   -250260.000    298.150

 O/F=    7.20000  %FUEL= 12.195122  R,EQ.RATIO= 2.009766  PHI,EQ.RATIO= 2.011303

 THERMODYNAMIC PROPERTIES

 P, BAR            100.00   10.000   1.0000
 T, K             1877.64  1877.14  1876.11
 RHO, KG/CU M    1.5749 1 1.5751 0 1.5758-1
 H, KJ/KG          206.80   206.80   206.80
 U, KJ/KG         -428.17  -428.09  -427.80
 G, KJ/KG        -16350.3 -17807.8 -19259.0
 S, KJ/(KG)(K)     8.8180   9.5968  10.3756

 M, (1/n)          24.586   24.583   24.581
 (dLV/dLP)t      -1.00014 -1.00003 -1.00006
 (dLV/dLT)p        1.0007   1.0006   1.0018
 Cp, KJ/(KG)(K)    1.5292   1.5322   1.5443
 GAMMAs            1.2842   1.2837   1.2817
 SON VEL,M/SEC      903.0    902.8    901.9

 MOLE FRACTIONS

 *Ar              0.00698  0.00698  0.00698
 CH4              0.00001  0.00000  0.00000
 *CO              0.19136  0.19137  0.19134
 *CO2             0.02596  0.02594  0.02596
 *H               0.00002  0.00007  0.00023
 HCN              0.00002  0.00000  0.00000
 *H2              0.12420  0.12431  0.12426
 H2O              0.06944  0.06942  0.06938
 NH3              0.00008  0.00001  0.00000
 *N2              0.58192  0.58189  0.58184
 *OH              0.00000  0.00000  0.00001

  * THERMODYNAMIC PROPERTIES FITTED TO 20000.K

 NOTE. WEIGHT FRACTION OF FUEL IN TOTAL FUELS AND OF OXIDANT IN TOTAL OXIDANTS









         THERMODYNAMIC EQUILIBRIUM COMBUSTION PROPERTIES AT ASSIGNED

                                   PRESSURES

 CASE = exam           

             REACTANT                    WT FRACTION      ENERGY      TEMP
                                          (SEE NOTE)     KJ/KG-MOL      K  
 OXIDANT     Air                          1.0000000     11897.374    700.000
 FUEL        C7H8(L)                      0.4000000     12179.997    298.150
 FUEL        C8H18(L),n-octa              0.6000000   -250260.000    298.150

 O/F=    7.40000  %FUEL= 11.904762  R,EQ.RATIO= 1.955489  PHI,EQ.RATIO= 1.956944

 THERMODYNAMIC PROPERTIES

 P, BAR            100.00   10.000   1.0000
 T, K             1914.82  1914.27  1912.95
 RHO, KG/CU M    1.5565 1 1.5567 0 1.5576-1
 H, KJ/KG          211.65   211.65   211.65
 U, KJ/KG         -430.83  -430.73  -430.36
 G, KJ/KG        -16646.3 -18120.6 -19586.1
 S, KJ/(KG)(K)     8.8040   9.5766  10.3493

 M, (1/n)          24.780   24.777   24.774
 (dLV/dLP)t      -1.00011 -1.00003 -1.00008
 (dLV/dLT)p        1.0006   1.0008   1.0023
 Cp, KJ/(KG)(K)    1.5265   1.5307   1.5458
 GAMMAs            1.2820   1.2813   1.2788
 SON VEL,M/SEC      907.6    907.2    906.1

 MOLE FRACTIONS

 *Ar              0.00706  0.00706  0.00706
 *CO              0.18587  0.18588  0.18583
 *CO2             0.02795  0.02794  0.02797
 *H               0.00003  0.00010  0.00030
 HCN              0.00001  0.00000  0.00000
 *H2              0.11610  0.11618  0.11611
 H2O              0.07444  0.07442  0.07437
 NH3              0.00007  0.00001  0.00000
 *N2              0.58845  0.58841  0.58835
 *OH              0.00000  0.00001  0.00002

  * THERMODYNAMIC PROPERTIES FITTED TO 20000.K

 NOTE. WEIGHT FRACTION OF FUEL IN TOTAL FUELS AND OF OXIDANT IN TOTAL OXIDANTS









         THERMODYNAMIC EQUILIBRIUM COMBUSTION PROPERTIES AT ASSIGNED

                                   PRESSURES

 CASE = exam           

             REACTANT                    WT FRACTION      ENERGY      TEMP
                                          (SEE NOTE)     KJ/KG-MOL      K  
 OXIDANT     Air                          1.0000000     11897.374    700.000
 FUEL        C7H8(L)                      0.4000000     12179.997    298.150
 FUEL        C8H18(L),n-octa              0.6000000   -250260.000    298.150

 O/F=    7.60000  %FUEL= 11.627907  R,EQ.RATIO= 1.904068  PHI,EQ.RATIO= 1.905445

 THERMODYNAMIC PROPERTIES

 P, BAR            100.00   10.000   1.0000
 T, K             1950.56  1949.92  1948.25
 RHO, KG/CU M    1.5395 1 1.5398 0 1.5409-1
 H, KJ/KG          216.28   216.28   216.28
 U, KJ/KG         -433.28  -433.14  -432.68
 G, KJ/KG        -16928.3 -18417.9 -19896.2
 S, KJ/(KG)(K)     8.7896   9.5564  10.3233

 M, (1/n)          24.967   24.964   24.961
 (dLV/dLP)t      -1.00010 -1.00004 -1.00010
 (dLV/dLT)p        1.0006   1.0009   1.0029
 Cp, KJ/(KG)(K)    1.5240   1.5295   1.5479
 GAMMAs            1.2799   1.2790   1.2760
 SON VEL,M/SEC      911.8    911.4    910.0

 MOLE FRACTIONS

 *Ar              0.00713  0.00713  0.00713
 *CO              0.18046  0.18046  0.18040
 *CO2             0.02999  0.02998  0.03001
 *H               0.00004  0.00012  0.00037
 HCN              0.00001  0.00000  0.00000
 *H2              0.10835  0.10840  0.10832
 H2O              0.07918  0.07916  0.07909
 NH3              0.00006  0.00001  0.00000
 *N2              0.59477  0.59473  0.59465
 *OH              0.00000  0.00001  0.00003

  * THERMODYNAMIC PROPERTIES FITTED TO 20000.K

 NOTE. WEIGHT FRACTION OF FUEL IN TOTAL FUELS AND OF OXIDANT IN TOTAL OXIDANTS









         THERMODYNAMIC EQUILIBRIUM COMBUSTION PROPERTIES AT ASSIGNED

                                   PRESSURES

 CASE = exam           

             REACTANT                    WT FRACTION      ENERGY      TEMP
                                          (SEE NOTE)     KJ/KG-MOL      K  
 OXIDANT     Air                          1.0000000     11897.374    700.000
 FUEL        C7H8(L)                      0.4000000     12179.997    298.150
 FUEL        C8H18(L),n-octa              0.6000000   -250260.000    298.150

 O/F=    7.80000  %FUEL= 11.363636  R,EQ.RATIO= 1.855285  PHI,EQ.RATIO= 1.856588

 THERMODYNAMIC PROPERTIES

 P, BAR            100.00   10.000   1.0000
 T, K             1984.93  1984.18  1982.11
 RHO, KG/CU M    1.5238 1 1.5242 0 1.5256-1
 H, KJ/KG          220.70   220.70   220.70
 U, KJ/KG         -435.53  -435.36  -434.79
 G, KJ/KG        -17197.0 -18701.0 -20190.4
 S, KJ/(KG)(K)     8.7750   9.5363  10.2977

 M, (1/n)          25.149   25.146   25.142
 (dLV/dLP)t      -1.00008 -1.00005 -1.00013
 (dLV/dLT)p        1.0006   1.0011   1.0035
 Cp, KJ/(KG)(K)    1.5216   1.5285   1.5507
 GAMMAs            1.2779   1.2768   1.2733
 SON VEL,M/SEC      915.7    915.2    913.6

 MOLE FRACTIONS

 *Ar              0.00721  0.00721  0.00721
 *CO              0.17510  0.17509  0.17502
 *CO2             0.03207  0.03206  0.03210
 *H               0.00005  0.00015  0.00046
 HCN              0.00001  0.00000  0.00000
 *H2              0.10095  0.10098  0.10088
 H2O              0.08367  0.08364  0.08355
 NH3              0.00005  0.00001  0.00000
 *N2              0.60089  0.60085  0.60075
 *OH              0.00000  0.00001  0.00004

  * THERMODYNAMIC PROPERTIES FITTED TO 20000.K

 NOTE. WEIGHT FRACTION OF FUEL IN TOTAL FUELS AND OF OXIDANT IN TOTAL OXIDANTS









         THERMODYNAMIC EQUILIBRIUM COMBUSTION PROPERTIES AT ASSIGNED

                                   PRESSURES

 CASE = exam           

             REACTANT                    WT FRACTION      ENERGY      TEMP
                                          (SEE NOTE)     KJ/KG-MOL      K  
 OXIDANT     Air                          1.0000000     11897.374    700.000
 FUEL        C7H8(L)                      0.4000000     12179.997    298.150
 FUEL        C8H18(L),n-octa              0.6000000   -250260.000    298.150

 O/F=    8.00000  %FUEL= 11.111111  R,EQ.RATIO= 1.808941  PHI,EQ.RATIO= 1.810173

 THERMODYNAMIC PROPERTIES

 P, BAR            100.00   10.000   1.0000
 T, K             2018.03  2017.14  2014.60
 RHO, KG/CU M    1.5093 1 1.5098 0 1.5114-1
 H, KJ/KG          224.93   224.93   224.93
 U, KJ/KG         -437.61  -437.40  -436.71
 G, KJ/KG        -17453.5 -18970.7 -20469.9
 S, KJ/(KG)(K)     8.7603   9.5163  10.2724

 M, (1/n)          25.325   25.322   25.317
 (dLV/dLP)t      -1.00008 -1.00006 -1.00015
 (dLV/dLT)p        1.0006   1.0014   1.0043
 Cp, KJ/(KG)(K)    1.5194   1.5277   1.5542
 GAMMAs            1.2760   1.2747   1.2706
 SON VEL,M/SEC      919.4    918.8    916.9

 MOLE FRACTIONS

 *Ar              0.00728  0.00728  0.00728
 *CO              0.16978  0.16977  0.16968
 *CO2             0.03421  0.03421  0.03425
 *H               0.00006  0.00018  0.00055
 HCN              0.00001  0.00000  0.00000
 *H2              0.09389  0.09391  0.09378
 H2O              0.08789  0.08785  0.08774
 NH3              0.00004  0.00000  0.00000
 *N2              0.60683  0.60678  0.60665
 *OH              0.00001  0.00002  0.00006

  * THERMODYNAMIC PROPERTIES FITTED TO 20000.K

 NOTE. WEIGHT FRACTION OF FUEL IN TOTAL FUELS AND OF OXIDANT IN TOTAL OXIDANTS









         THERMODYNAMIC EQUILIBRIUM COMBUSTION PROPERTIES AT ASSIGNED

                                   PRESSURES

 CASE = exam           

             REACTANT                    WT FRACTION      ENERGY      TEMP
                                          (SEE NOTE)     KJ/KG-MOL      K  
 OXIDANT     Air                          1.0000000     11897.374    700.000
 FUEL        C7H8(L)                      0.4000000     12179.997    298.150
 FUEL        C8H18(L),n-octa              0.6000000   -250260.000    298.150

 O/F=    8.20000  %FUEL= 10.869565  R,EQ.RATIO= 1.764858  PHI,EQ.RATIO= 1.766022

 THERMODYNAMIC PROPERTIES

 P, BAR            100.00   10.000   1.0000
 T, K             2049.92  2048.87  2045.81
 RHO, KG/CU M    1.4959 1 1.4965 0 1.4983-1
 H, KJ/KG          228.97   228.97   228.97
 U, KJ/KG         -439.54  -439.28  -438.45
 G, KJ/KG        -17698.5 -19227.9 -20735.4
 S, KJ/(KG)(K)     8.7455   9.4964  10.2475

 M, (1/n)          25.496   25.493   25.486
 (dLV/dLP)t      -1.00007 -1.00006 -1.00019
 (dLV/dLT)p        1.0007   1.0017   1.0051
 Cp, KJ/(KG)(K)    1.5173   1.5272   1.5585
 GAMMAs            1.2741   1.2726   1.2679
 SON VEL,M/SEC      922.9    922.2    919.9

 MOLE FRACTIONS

 *Ar              0.00735  0.00735  0.00734
 *CO              0.16450  0.16448  0.16437
 *CO2             0.03641  0.03641  0.03647
 *H               0.00007  0.00021  0.00065
 HCN              0.00001  0.00000  0.00000
 *H2              0.08717  0.08717  0.08704
 H2O              0.09186  0.09181  0.09166
 NH3              0.00004  0.00000  0.00000
 *NO              0.00000  0.00000  0.00001
 *N2              0.61259  0.61253  0.61237
 *OH              0.00001  0.00003  0.00008

  * THERMODYNAMIC PROPERTIES FITTED TO 20000.K

 NOTE. WEIGHT FRACTION OF FUEL IN TOTAL FUELS AND OF OXIDANT IN TOTAL OXIDANTS









         THERMODYNAMIC EQUILIBRIUM COMBUSTION PROPERTIES AT ASSIGNED

                                   PRESSURES

 CASE = exam           

             REACTANT                    WT FRACTION      ENERGY      TEMP
                                          (SEE NOTE)     KJ/KG-MOL      K  
 OXIDANT     Air                          1.0000000     11897.374    700.000
 FUEL        C7H8(L)                      0.4000000     12179.997    298.150
 FUEL        C8H18(L),n-octa              0.6000000   -250260.000    298.150

 O/F=    8.40000  %FUEL= 10.638298  R,EQ.RATIO= 1.722873  PHI,EQ.RATIO= 1.723974

 THERMODYNAMIC PROPERTIES

 P, BAR            100.00   10.000   1.0000
 T, K             2080.69  2079.45  2075.79
 RHO, KG/CU M    1.4833 1 1.4840 0 1.4862-1
 H, KJ/KG          232.83   232.83   232.83
 U, KJ/KG         -441.32  -441.01  -440.03
 G, KJ/KG        -17932.9 -19473.5 -20987.9
 S, KJ/(KG)(K)     8.7306   9.4767  10.2230

 M, (1/n)          25.662   25.658   25.650
 (dLV/dLP)t      -1.00007 -1.00008 -1.00022
 (dLV/dLT)p        1.0008   1.0020   1.0061
 Cp, KJ/(KG)(K)    1.5154   1.5271   1.5637
 GAMMAs            1.2724   1.2706   1.2652
 SON VEL,M/SEC      926.2    925.3    922.7

 MOLE FRACTIONS

 *Ar              0.00741  0.00741  0.00741
 *CO              0.15924  0.15921  0.15909
 *CO2             0.03868  0.03869  0.03875
 *H               0.00008  0.00025  0.00076
 HCN              0.00001  0.00000  0.00000
 *H2              0.08079  0.08078  0.08063
 H2O              0.09557  0.09551  0.09532
 NH3              0.00003  0.00000  0.00000
 *NO              0.00000  0.00000  0.00001
 *N2              0.61817  0.61810  0.61791
 *OH              0.00001  0.00004  0.00012

  * THERMODYNAMIC PROPERTIES FITTED TO 20000.K

 NOTE. WEIGHT FRACTION OF FUEL IN TOTAL FUELS AND OF OXIDANT IN TOTAL OXIDANTS









         THERMODYNAMIC EQUILIBRIUM COMBUSTION PROPERTIES AT ASSIGNED

                                   PRESSURES

 CASE = exam           

             REACTANT                    WT FRACTION      ENERGY      TEMP
                                          (SEE NOTE)     KJ/KG-MOL      K  
 OXIDANT     Air                          1.0000000     11897.374    700.000
 FUEL        C7H8(L)                      0.4000000     12179.997    298.150
 FUEL        C8H18(L),n-octa              0.6000000   -250260.000    298.150

 O/F=    8.60000  %FUEL= 10.416667  R,EQ.RATIO= 1.682842  PHI,EQ.RATIO= 1.683882

 THERMODYNAMIC PROPERTIES

 P, BAR            100.00   10.000   1.0000
 T, K             2110.39  2108.94  2104.61
 RHO, KG/CU M    1.4716 1 1.4724 0 1.4749-1
 H, KJ/KG          236.54   236.54   236.54
 U, KJ/KG         -442.98  -442.61  -441.46
 G, KJ/KG        -18157.2 -19708.1 -21228.0
 S, KJ/(KG)(K)     8.7158   9.4572  10.1988

 M, (1/n)          25.822   25.819   25.809
 (dLV/dLP)t      -1.00006 -1.00009 -1.00026
 (dLV/dLT)p        1.0008   1.0023   1.0071
 Cp, KJ/(KG)(K)    1.5136   1.5273   1.5698
 GAMMAs            1.2707   1.2686   1.2624
 SON VEL,M/SEC      929.2    928.2    925.2

 MOLE FRACTIONS

 *Ar              0.00748  0.00748  0.00748
 *CO              0.15399  0.15396  0.15381
 *CO2             0.04103  0.04104  0.04111
 *H               0.00009  0.00029  0.00088
 *H2              0.07473  0.07471  0.07455
 H2O              0.09903  0.09896  0.09871
 NH3              0.00003  0.00000  0.00000
 *NO              0.00000  0.00001  0.00002
 *N2              0.62359  0.62351  0.62328
 *OH              0.00002  0.00005  0.00016

  * THERMODYNAMIC PROPERTIES FITTED TO 20000.K

 NOTE. WEIGHT FRACTION OF FUEL IN TOTAL FUELS AND OF OXIDANT IN TOTAL OXIDANTS









         THERMODYNAMIC EQUILIBRIUM COMBUSTION PROPERTIES AT ASSIGNED

                                   PRESSURES

 CASE = exam           

             REACTANT                    WT FRACTION      ENERGY      TEMP
                                          (SEE NOTE)     KJ/KG-MOL      K  
 OXIDANT     Air                          1.0000000     11897.374    700.000
 FUEL        C7H8(L)                      0.4000000     12179.997    298.150
 FUEL        C8H18(L),n-octa              0.6000000   -250260.000    298.150

 O/F=    8.80000  %FUEL= 10.204082  R,EQ.RATIO= 1.644630  PHI,EQ.RATIO= 1.645612

 THERMODYNAMIC PROPERTIES

 P, BAR            100.00   10.000   1.0000
 T, K             2139.10  2137.39  2132.31
 RHO, KG/CU M    1.4607 1 1.4616 0 1.4645-1
 H, KJ/KG          240.10   240.10   240.10
 U, KJ/KG         -444.53  -444.09  -442.75
 G, KJ/KG        -18372.1 -19932.5 -21456.5
 S, KJ/(KG)(K)     8.7010   9.4380  10.1751

 M, (1/n)          25.979   25.974   25.963
 (dLV/dLP)t      -1.00006 -1.00010 -1.00031
 (dLV/dLT)p        1.0010   1.0027   1.0083
 Cp, KJ/(KG)(K)    1.5120   1.5279   1.5770
 GAMMAs            1.2691   1.2667   1.2597
 SON VEL,M/SEC      932.1    930.9    927.5

 MOLE FRACTIONS

 *Ar              0.00754  0.00754  0.00754
 *CO              0.14875  0.14871  0.14855
 *CO2             0.04345  0.04347  0.04355
 *H               0.00010  0.00033  0.00100
 *H2              0.06900  0.06897  0.06880
 H2O              0.10225  0.10215  0.10185
 NH3              0.00002  0.00000  0.00000
 *NO              0.00000  0.00001  0.00002
 *N2              0.62885  0.62876  0.62849
 *OH              0.00002  0.00007  0.00021

  * THERMODYNAMIC PROPERTIES FITTED TO 20000.K

 NOTE. WEIGHT FRACTION OF FUEL IN TOTAL FUELS AND OF OXIDANT IN TOTAL OXIDANTS



