
 *******************************************************************************

         NASA-GLENN CHEMICAL EQUILIBRIUM PROGRAM CEA2, MAY 21, 2004
                   BY  BONNIE MCBRIDE AND SANFORD GORDON
      REFS: NASA RP-1311, PART I, 1994 AND NASA RP-1311, PART II, 1996

 *******************************************************************************



 problem   case=rocket o/f=10.000000,
     rocket  fac   ma=1101.072141
   p,psia=4812.000000,
 react
   fuel=H2(cr)  wt=1  t,k=148.200000
     h,kj/mol=-5.046048  H 2
   oxid=O2(cr)  wt=1  t,k=115.400000
     h,kj/mol=-10.956389  O 2
 output  massf short
     plot p t rho h m cp gam
 end





              THEORETICAL ROCKET PERFORMANCE ASSUMING EQUILIBRIUM

            COMPOSITION DURING EXPANSION FROM FINITE AREA COMBUSTOR

 Pin =  4812.0 PSIA
 MDOT/Ac =  1101.072 (KG/S)/M**2      Pinj/Pinf =  1.000934
 CASE = rocket         

             REACTANT                    WT FRACTION      ENERGY      TEMP
                                          (SEE NOTE)     KJ/KG-MOL      K  
 FUEL        H2(cr)                       1.0000000     -5046.048    148.200
 OXIDANT     O2(cr)                       1.0000000    -10956.389    115.400

 O/F=   10.00000  %FUEL=  9.090909  R,EQ.RATIO= 0.793668  PHI,EQ.RATIO= 0.793668

                 INJECTOR  COMB END  THROAT
 Pinj/P            1.0000   1.0019   1.7345
 P, BAR            331.77   331.16   191.28
 T, K             3739.96  3739.49  3535.30
 RHO, KG/CU M    1.9615 1 1.9581 1 1.2088 1
 H, KJ/KG         -538.83  -540.41 -1438.38
 U, KJ/KG        -2230.26 -2231.61 -3020.79
 G, KJ/KG        -51128.0 -51124.8 -49260.7
 S, KJ/(KG)(K)    13.5267  13.5271  13.5271

 M, (1/n)          18.384   18.385   18.576
 (dLV/dLP)t      -1.02606 -1.02606 -1.02188
 (dLV/dLT)p        1.4415   1.4415   1.3941
 Cp, KJ/(KG)(K)    6.3499   6.3504   6.1127
 GAMMAs            1.1389   1.1389   1.1369
 SON VEL,M/SEC     1387.9   1387.8   1341.3
 MACH NUMBER        0.000    0.041    1.000

 PERFORMANCE PARAMETERS

 Ae/At                      14.726   1.0000
 CSTAR, M/SEC               2044.4   2044.4
 CF                         0.0275   0.6561
 Ivac, M/SEC               30134.4   2521.1
 Isp, M/SEC                   56.2   1341.3


 MASS FRACTIONS

 *H               0.00061  0.00061  0.00047
 HO2              0.00148  0.00148  0.00102
 *H2              0.00464  0.00464  0.00387
 H2O              0.71295  0.71296  0.72839
 H2O2             0.00033  0.00033  0.00021
 *O               0.01293  0.01293  0.01055
 *OH              0.09808  0.09807  0.08468
 *O2              0.16897  0.16897  0.17080
 O3               0.00001  0.00001  0.00000

  * THERMODYNAMIC PROPERTIES FITTED TO 20000.K

 NOTE. WEIGHT FRACTION OF FUEL IN TOTAL FUELS AND OF OXIDANT IN TOTAL OXIDANTS



