
 *******************************************************************************

         NASA-GLENN CHEMICAL EQUILIBRIUM PROGRAM CEA2, MAY 21, 2004
                   BY  BONNIE MCBRIDE AND SANFORD GORDON
      REFS: NASA RP-1311, PART I, 1994 AND NASA RP-1311, PART II, 1996

 *******************************************************************************



 problem   case=exam2 o/f=7,7.2,7.4,7.6,7.8,8,8.2,8.4,8.6,8.8,
     hp   p,bar=100,10,1,  t,k=3800
 react
   oxid=O2 wt=1  t,k=298.15
   fuel=H2 wt=1  t,k=298.15
 omit
   CCN CNC C2N2 C2O C3H4,allene C3H4,propyne C3H4,cyclo- C3 C3H5,allyl
   C3H6,propylene C3H6,cyclo- C3H3,propargyl C3H6O C3H7,n-propyl
   C3H7,i-propyl Jet-A(g) C3O2 C4 C4H2 C3H8O,2propanol C4H4,1,3-cyclo-
   C4H6,butadiene C4H6,2-butyne C3H8O,1propanol C4H8,tr2-butene
   C4H8,isobutene C4H8,cyclo- C4H6,cyclo- (CH3COOH)2 C4H9,n-butyl
   C4H9,i-butyl C4H8,1-butene C4H9,s-butyl C4H9,t-butyl C4H10,isobutane
   C4H8,cis2-buten C4H10,n-butane C4N2 C5 C3H8 C5H6,1,3cyclo-
   C5H8,cyclo- C5H10,1-pentene C10H21,n-decyl C5H10,cyclo- C5H11,pentyl
   C5H11,t-pentyl C12H10,biphenyl C5H12,n-pentane C5H12,i-pentane
   CH3C(CH3)2CH3 C12H9,o-bipheny C6H6 C6H5OH,phenol C6H10,cyclo- C6H2
   C6H12,1-hexene C6H12,cyclo- C6H13,n-hexyl C6H5,phenyl C7H7,benzyl
   C7H8 C7H8O,cresol-mx C6H5O,phenoxy C7H14,1-heptene C7H15,n-heptyl
   C7H16,n-heptane C10H8,azulene C8H8,styrene C8H10,ethylbenz
   C8H16,1-octene C10H8,napthlene C8H17,n-octyl C8H18,isooctane
   C8H18,n-octane C9H19,n-nonyl Jet-A(L) C6H6(L) H2O(s) H2O(L)
 output  short
     plot t phi,eq.ratio
 end




         THERMODYNAMIC EQUILIBRIUM COMBUSTION PROPERTIES AT ASSIGNED

                                   PRESSURES

 CASE = exam2          

             REACTANT                    WT FRACTION      ENERGY      TEMP
                                          (SEE NOTE)     KJ/KG-MOL      K  
 OXIDANT     O2                           1.0000000        -0.000    298.150
 FUEL        H2                           1.0000000        -0.000    298.150

 O/F=    7.00000  %FUEL= 12.500000  R,EQ.RATIO= 1.133812  PHI,EQ.RATIO= 1.133812

 THERMODYNAMIC PROPERTIES

 P, BAR            100.00   10.000   1.0000
 T, K             3716.12  3381.34  3068.12
 RHO, KG/CU M    4.7637 0 5.0631-1 5.4120-2
 H, KJ/KG        -0.00000 -0.00000 -0.00000
 U, KJ/KG        -2099.22 -1975.09 -1847.76
 G, KJ/KG        -61939.1 -60832.4 -59388.9
 S, KJ/(KG)(K)    16.6677  17.9906  19.3568

 M, (1/n)          14.719   14.234   13.806
 (dLV/dLP)t      -1.04346 -1.05882 -1.07345
 (dLV/dLT)p        1.7264   2.0656   2.4492
 Cp, KJ/(KG)(K)   10.4093  14.8076  20.7376
 GAMMAs            1.1342   1.1229   1.1120
 SON VEL,M/SEC     1543.0   1489.3   1433.5

 MOLE FRACTIONS

 *H               0.03888  0.06064  0.08447
 HO2              0.00014  0.00007  0.00003
 *H2              0.17173  0.18341  0.18948
 H2O              0.67918  0.62144  0.57582
 H2O2             0.00004  0.00001  0.00000
 *O               0.01022  0.01712  0.02420
 *OH              0.08443  0.09487  0.09705
 *O2              0.01539  0.02245  0.02896

  * THERMODYNAMIC PROPERTIES FITTED TO 20000.K

 NOTE. WEIGHT FRACTION OF FUEL IN TOTAL FUELS AND OF OXIDANT IN TOTAL OXIDANTS









         THERMODYNAMIC EQUILIBRIUM COMBUSTION PROPERTIES AT ASSIGNED

                                   PRESSURES

 CASE = exam2          

             REACTANT                    WT FRACTION      ENERGY      TEMP
                                          (SEE NOTE)     KJ/KG-MOL      K  
 OXIDANT     O2                           1.0000000        -0.000    298.150
 FUEL        H2                           1.0000000        -0.000    298.150

 O/F=    7.20000  %FUEL= 12.195122  R,EQ.RATIO= 1.102317  PHI,EQ.RATIO= 1.102317

 THERMODYNAMIC PROPERTIES

 P, BAR            100.00   10.000   1.0000
 T, K             3723.16  3385.19  3070.48
 RHO, KG/CU M    4.8376 0 5.1434-1 5.4988-2
 H, KJ/KG        -0.00000 -0.00000 -0.00000
 U, KJ/KG        -2067.15 -1944.22 -1818.57
 G, KJ/KG        -61265.5 -60106.7 -58643.6
 S, KJ/(KG)(K)    16.4552  17.7558  19.0992

 M, (1/n)          14.975   14.477   14.038
 (dLV/dLP)t      -1.04502 -1.06014 -1.07461
 (dLV/dLT)p        1.7510   2.0884   2.4714
 Cp, KJ/(KG)(K)   10.4546  14.7934  20.6518
 GAMMAs            1.1335   1.1226   1.1118
 SON VEL,M/SEC     1530.8   1477.3   1421.9

 MOLE FRACTIONS

 *H               0.03796  0.05934  0.08283
 HO2              0.00017  0.00008  0.00003
 *H2              0.15910  0.17239  0.17969
 H2O              0.68287  0.62397  0.57770
 H2O2             0.00004  0.00001  0.00000
 *O               0.01144  0.01867  0.02600
 *OH              0.08974  0.09939  0.10085
 *O2              0.01869  0.02614  0.03291

  * THERMODYNAMIC PROPERTIES FITTED TO 20000.K

 NOTE. WEIGHT FRACTION OF FUEL IN TOTAL FUELS AND OF OXIDANT IN TOTAL OXIDANTS









         THERMODYNAMIC EQUILIBRIUM COMBUSTION PROPERTIES AT ASSIGNED

                                   PRESSURES

 CASE = exam2          

             REACTANT                    WT FRACTION      ENERGY      TEMP
                                          (SEE NOTE)     KJ/KG-MOL      K  
 OXIDANT     O2                           1.0000000        -0.000    298.150
 FUEL        H2                           1.0000000        -0.000    298.150

 O/F=    7.40000  %FUEL= 11.904762  R,EQ.RATIO= 1.072525  PHI,EQ.RATIO= 1.072525

 THERMODYNAMIC PROPERTIES

 P, BAR            100.00   10.000   1.0000
 T, K             3727.80  3387.69  3072.02
 RHO, KG/CU M    4.9119 0 5.2237-1 5.5851-2
 H, KJ/KG        -0.00000 -0.00000 -0.00000
 U, KJ/KG        -2035.85 -1914.36 -1790.47
 G, KJ/KG        -60583.4 -59390.5 -57917.2
 S, KJ/(KG)(K)    16.2518  17.5312  18.8532

 M, (1/n)          15.224   14.714   14.266
 (dLV/dLP)t      -1.04615 -1.06107 -1.07541
 (dLV/dLT)p        1.7688   2.1045   2.4868
 Cp, KJ/(KG)(K)   10.4435  14.7197  20.5019
 GAMMAs            1.1331   1.1223   1.1116
 SON VEL,M/SEC     1518.8   1465.8   1410.8

 MOLE FRACTIONS

 *H               0.03688  0.05790  0.08107
 HO2              0.00019  0.00008  0.00003
 *H2              0.14746  0.16216  0.17055
 H2O              0.68570  0.62595  0.57918
 H2O2             0.00004  0.00001  0.00000
 *O               0.01265  0.02018  0.02773
 *OH              0.09468  0.10358  0.10436
 *O2              0.02239  0.03013  0.03708

  * THERMODYNAMIC PROPERTIES FITTED TO 20000.K

 NOTE. WEIGHT FRACTION OF FUEL IN TOTAL FUELS AND OF OXIDANT IN TOTAL OXIDANTS









         THERMODYNAMIC EQUILIBRIUM COMBUSTION PROPERTIES AT ASSIGNED

                                   PRESSURES

 CASE = exam2          

             REACTANT                    WT FRACTION      ENERGY      TEMP
                                          (SEE NOTE)     KJ/KG-MOL      K  
 OXIDANT     O2                           1.0000000        -0.000    298.150
 FUEL        H2                           1.0000000        -0.000    298.150

 O/F=    7.60000  %FUEL= 11.627907  R,EQ.RATIO= 1.044300  PHI,EQ.RATIO= 1.044300

 THERMODYNAMIC PROPERTIES

 P, BAR            100.00   10.000   1.0000
 T, K             3730.29  3389.00  3072.84
 RHO, KG/CU M    4.9867 0 5.3037-1 5.6709-2
 H, KJ/KG        -0.00000 -0.00000 -0.00000
 U, KJ/KG        -2005.34 -1885.47 -1763.40
 G, KJ/KG        -59896.3 -58685.0 -57209.6
 S, KJ/(KG)(K)    16.0567  17.3163  18.6179

 M, (1/n)          15.466   14.945   14.489
 (dLV/dLP)t      -1.04685 -1.06162 -1.07589
 (dLV/dLT)p        1.7798   2.1143   2.4961
 Cp, KJ/(KG)(K)   10.3810  14.5941  20.2976
 GAMMAs            1.1328   1.1221   1.1114
 SON VEL,M/SEC     1507.2   1454.5   1400.0

 MOLE FRACTIONS

 *H               0.03570  0.05636  0.07920
 HO2              0.00022  0.00009  0.00004
 *H2              0.13676  0.15266  0.16202
 H2O              0.68776  0.62742  0.58028
 H2O2             0.00005  0.00001  0.00000
 *O               0.01383  0.02164  0.02941
 *OH              0.09921  0.10742  0.10759
 *O2              0.02647  0.03439  0.04146

  * THERMODYNAMIC PROPERTIES FITTED TO 20000.K

 NOTE. WEIGHT FRACTION OF FUEL IN TOTAL FUELS AND OF OXIDANT IN TOTAL OXIDANTS









         THERMODYNAMIC EQUILIBRIUM COMBUSTION PROPERTIES AT ASSIGNED

                                   PRESSURES

 CASE = exam2          

             REACTANT                    WT FRACTION      ENERGY      TEMP
                                          (SEE NOTE)     KJ/KG-MOL      K  
 OXIDANT     O2                           1.0000000        -0.000    298.150
 FUEL        H2                           1.0000000        -0.000    298.150

 O/F=    7.80000  %FUEL= 11.363636  R,EQ.RATIO= 1.017523  PHI,EQ.RATIO= 1.017523

 THERMODYNAMIC PROPERTIES

 P, BAR            100.00   10.000   1.0000
 T, K             3730.87  3389.24  3073.01
 RHO, KG/CU M    5.0617 0 5.3835-1 5.7560-2
 H, KJ/KG        -0.00000 -0.00000 -0.00000
 U, KJ/KG        -1975.63 -1857.54 -1737.33
 G, KJ/KG        -59207.5 -57991.4 -56520.7
 S, KJ/(KG)(K)    15.8696  17.1104  18.3926

 M, (1/n)          15.701   15.171   14.707
 (dLV/dLP)t      -1.04715 -1.06184 -1.07606
 (dLV/dLT)p        1.7847   2.1185   2.5000
 Cp, KJ/(KG)(K)   10.2739  14.4249  20.0481
 GAMMAs            1.1325   1.1219   1.1113
 SON VEL,M/SEC     1495.8   1443.6   1389.5

 MOLE FRACTIONS

 *H               0.03443  0.05474  0.07727
 HO2              0.00025  0.00010  0.00004
 *H2              0.12694  0.14384  0.15405
 H2O              0.68911  0.62844  0.58105
 H2O2             0.00005  0.00001  0.00000
 *O               0.01497  0.02303  0.03100
 *OH              0.10333  0.11093  0.11056
 *O2              0.03092  0.03891  0.04603

  * THERMODYNAMIC PROPERTIES FITTED TO 20000.K

 NOTE. WEIGHT FRACTION OF FUEL IN TOTAL FUELS AND OF OXIDANT IN TOTAL OXIDANTS









         THERMODYNAMIC EQUILIBRIUM COMBUSTION PROPERTIES AT ASSIGNED

                                   PRESSURES

 CASE = exam2          

             REACTANT                    WT FRACTION      ENERGY      TEMP
                                          (SEE NOTE)     KJ/KG-MOL      K  
 OXIDANT     O2                           1.0000000        -0.000    298.150
 FUEL        H2                           1.0000000        -0.000    298.150

 O/F=    8.00000  %FUEL= 11.111111  R,EQ.RATIO= 0.992085  PHI,EQ.RATIO= 0.992085

 THERMODYNAMIC PROPERTIES

 P, BAR            100.00   10.000   1.0000
 T, K             3729.76  3388.54  3072.61
 RHO, KG/CU M    5.1368 0 5.4629-1 5.8404-2
 H, KJ/KG        -0.00000 -0.00000 -0.00000
 U, KJ/KG        -1946.75 -1830.54 -1712.21
 G, KJ/KG        -58519.9 -57310.3 -55850.2
 S, KJ/(KG)(K)    15.6900  16.9130  18.1768

 M, (1/n)          15.930   15.391   14.921
 (dLV/dLP)t      -1.04709 -1.06176 -1.07598
 (dLV/dLT)p        1.7842   2.1177   2.4990
 Cp, KJ/(KG)(K)   10.1303  14.2201  19.7619
 GAMMAs            1.1324   1.1218   1.1113
 SON VEL,M/SEC     1484.8   1433.0   1379.4

 MOLE FRACTIONS

 *H               0.03311  0.05307  0.07528
 HO2              0.00028  0.00011  0.00004
 *H2              0.11793  0.13564  0.14659
 H2O              0.68982  0.62903  0.58151
 H2O2             0.00006  0.00001  0.00000
 *O               0.01605  0.02435  0.03252
 *OH              0.10702  0.11410  0.11326
 *O2              0.03573  0.04368  0.05079

  * THERMODYNAMIC PROPERTIES FITTED TO 20000.K

 NOTE. WEIGHT FRACTION OF FUEL IN TOTAL FUELS AND OF OXIDANT IN TOTAL OXIDANTS









         THERMODYNAMIC EQUILIBRIUM COMBUSTION PROPERTIES AT ASSIGNED

                                   PRESSURES

 CASE = exam2          

             REACTANT                    WT FRACTION      ENERGY      TEMP
                                          (SEE NOTE)     KJ/KG-MOL      K  
 OXIDANT     O2                           1.0000000        -0.000    298.150
 FUEL        H2                           1.0000000        -0.000    298.150

 O/F=    8.20000  %FUEL= 10.869565  R,EQ.RATIO= 0.967888  PHI,EQ.RATIO= 0.967888

 THERMODYNAMIC PROPERTIES

 P, BAR            100.00   10.000   1.0000
 T, K             3727.17  3387.00  3071.70
 RHO, KG/CU M    5.2119 0 5.5419-1 5.9242-2
 H, KJ/KG        -0.00000 -0.00000 -0.00000
 U, KJ/KG        -1918.68 -1804.43 -1687.99
 G, KJ/KG        -57835.8 -56642.5 -55197.9
 S, KJ/(KG)(K)    15.5174  16.7235  17.9698

 M, (1/n)          16.152   15.607   15.130
 (dLV/dLP)t      -1.04674 -1.06143 -1.07566
 (dLV/dLT)p        1.7792   2.1126   2.4938
 Cp, KJ/(KG)(K)    9.9584  13.9873  19.4469
 GAMMAs            1.1324   1.1218   1.1112
 SON VEL,M/SEC     1474.0   1422.7   1369.6

 MOLE FRACTIONS

 *H               0.03177  0.05136  0.07327
 HO2              0.00031  0.00012  0.00004
 *H2              0.10968  0.12802  0.13960
 H2O              0.68997  0.62926  0.58170
 H2O2             0.00006  0.00001  0.00000
 *O               0.01707  0.02560  0.03396
 *OH              0.11029  0.11695  0.11572
 *O2              0.04086  0.04867  0.05571

  * THERMODYNAMIC PROPERTIES FITTED TO 20000.K

 NOTE. WEIGHT FRACTION OF FUEL IN TOTAL FUELS AND OF OXIDANT IN TOTAL OXIDANTS









         THERMODYNAMIC EQUILIBRIUM COMBUSTION PROPERTIES AT ASSIGNED

                                   PRESSURES

 CASE = exam2          

             REACTANT                    WT FRACTION      ENERGY      TEMP
                                          (SEE NOTE)     KJ/KG-MOL      K  
 OXIDANT     O2                           1.0000000        -0.000    298.150
 FUEL        H2                           1.0000000        -0.000    298.150

 O/F=    8.40000  %FUEL= 10.638298  R,EQ.RATIO= 0.944843  PHI,EQ.RATIO= 0.944843

 THERMODYNAMIC PROPERTIES

 P, BAR            100.00   10.000   1.0000
 T, K             3723.29  3384.71  3070.33
 RHO, KG/CU M    5.2870 0 5.6205-1 6.0073-2
 H, KJ/KG        -0.00000 -0.00000 -0.00000
 U, KJ/KG        -1891.42 -1779.20 -1664.65
 G, KJ/KG        -57157.4 -55988.2 -54563.3
 S, KJ/(KG)(K)    15.3513  16.5415  17.7712

 M, (1/n)          16.367   15.817   15.336
 (dLV/dLP)t      -1.04615 -1.06088 -1.07515
 (dLV/dLT)p        1.7704   2.1039   2.4851
 Cp, KJ/(KG)(K)    9.7660  13.7336  19.1099
 GAMMAs            1.1324   1.1218   1.1112
 SON VEL,M/SEC     1463.5   1412.7   1360.0

 MOLE FRACTIONS

 *H               0.03042  0.04964  0.07124
 HO2              0.00033  0.00013  0.00005
 *H2              0.10212  0.12093  0.13305
 H2O              0.68961  0.62915  0.58163
 H2O2             0.00006  0.00001  0.00000
 *O               0.01801  0.02677  0.03531
 *OH              0.11316  0.11949  0.11793
 *O2              0.04630  0.05388  0.06078

  * THERMODYNAMIC PROPERTIES FITTED TO 20000.K

 NOTE. WEIGHT FRACTION OF FUEL IN TOTAL FUELS AND OF OXIDANT IN TOTAL OXIDANTS









         THERMODYNAMIC EQUILIBRIUM COMBUSTION PROPERTIES AT ASSIGNED

                                   PRESSURES

 CASE = exam2          

             REACTANT                    WT FRACTION      ENERGY      TEMP
                                          (SEE NOTE)     KJ/KG-MOL      K  
 OXIDANT     O2                           1.0000000        -0.000    298.150
 FUEL        H2                           1.0000000        -0.000    298.150

 O/F=    8.60000  %FUEL= 10.416667  R,EQ.RATIO= 0.922870  PHI,EQ.RATIO= 0.922870

 THERMODYNAMIC PROPERTIES

 P, BAR            100.00   10.000   1.0000
 T, K             3718.29  3381.77  3068.55
 RHO, KG/CU M    5.3620 0 5.6986-1 6.0897-2
 H, KJ/KG        -0.00000 -0.00000 -0.00000
 U, KJ/KG        -1864.98 -1754.80 -1642.13
 G, KJ/KG        -56486.5 -55347.8 -53946.0
 S, KJ/(KG)(K)    15.1915  16.3665  17.5803

 M, (1/n)          16.577   16.023   15.537
 (dLV/dLP)t      -1.04536 -1.06016 -1.07448
 (dLV/dLT)p        1.7588   2.0923   2.4733
 Cp, KJ/(KG)(K)    9.5597  13.4648  18.7570
 GAMMAs            1.1324   1.1218   1.1112
 SON VEL,M/SEC     1453.2   1403.0   1350.8

 MOLE FRACTIONS

 *H               0.02907  0.04793  0.06922
 HO2              0.00036  0.00014  0.00005
 *H2              0.09519  0.11432  0.12690
 H2O              0.68880  0.62874  0.58135
 H2O2             0.00007  0.00001  0.00000
 *O               0.01888  0.02786  0.03658
 *OH              0.11563  0.12173  0.11991
 *O2              0.05200  0.05927  0.06599

  * THERMODYNAMIC PROPERTIES FITTED TO 20000.K

 NOTE. WEIGHT FRACTION OF FUEL IN TOTAL FUELS AND OF OXIDANT IN TOTAL OXIDANTS









         THERMODYNAMIC EQUILIBRIUM COMBUSTION PROPERTIES AT ASSIGNED

                                   PRESSURES

 CASE = exam2          

             REACTANT                    WT FRACTION      ENERGY      TEMP
                                          (SEE NOTE)     KJ/KG-MOL      K  
 OXIDANT     O2                           1.0000000        -0.000    298.150
 FUEL        H2                           1.0000000        -0.000    298.150

 O/F=    8.80000  %FUEL= 10.204082  R,EQ.RATIO= 0.901896  PHI,EQ.RATIO= 0.901896

 THERMODYNAMIC PROPERTIES

 P, BAR            100.00   10.000   1.0000
 T, K             3712.33  3378.25  3066.40
 RHO, KG/CU M    5.4368 0 5.7763-1 6.1713-2
 H, KJ/KG        -0.00000 -0.00000 -0.00000
 U, KJ/KG        -1839.33 -1731.22 -1620.40
 G, KJ/KG        -55824.6 -54721.4 -53345.6
 S, KJ/(KG)(K)    15.0376  16.1981  17.3968

 M, (1/n)          16.781   16.225   15.734
 (dLV/dLP)t      -1.04444 -1.05929 -1.07367
 (dLV/dLT)p        1.7450   2.0783   2.4590
 Cp, KJ/(KG)(K)    9.3454  13.1863  18.3932
 GAMMAs            1.1325   1.1218   1.1112
 SON VEL,M/SEC     1443.3   1393.6   1341.8

 MOLE FRACTIONS

 *H               0.02775  0.04622  0.06720
 HO2              0.00039  0.00015  0.00005
 *H2              0.08883  0.10817  0.12111
 H2O              0.68760  0.62805  0.58086
 H2O2             0.00007  0.00001  0.00000
 *O               0.01966  0.02886  0.03777
 *OH              0.11773  0.12370  0.12168
 *O2              0.05796  0.06484  0.07133

  * THERMODYNAMIC PROPERTIES FITTED TO 20000.K

 NOTE. WEIGHT FRACTION OF FUEL IN TOTAL FUELS AND OF OXIDANT IN TOTAL OXIDANTS



