
 *******************************************************************************

         NASA-GLENN CHEMICAL EQUILIBRIUM PROGRAM CEA2, MAY 21, 2004
                   BY  BONNIE MCBRIDE AND SANFORD GORDON
      REFS: NASA RP-1311, PART I, 1994 AND NASA RP-1311, PART II, 1996

 *******************************************************************************



 problem   case=rocket,
     rocket  equilibrium  frozen  nfz=2
   p,psia=2871.000000,
   sup,ae/at=69,
 react
   fuel=H2 wt=0.028660  t,k=255.400000
   fuel=H2 wt=0.073115  t,k=886.485976
   fuel=H2 wt=0.039327  t,k=886.485976
   oxid=O2(cr)  wt=0.858898  t,k=104.300000
     h,kj/mol=-11.791558  O 2
 output  massf short
     plot p t rho m cp gam mach cf isp
 end





              THEORETICAL ROCKET PERFORMANCE ASSUMING EQUILIBRIUM

           COMPOSITION DURING EXPANSION FROM INFINITE AREA COMBUSTOR

 Pin =  2871.0 PSIA
 CASE = rocket,        

             REACTANT                    WT FRACTION      ENERGY      TEMP
                                          (SEE NOTE)     KJ/KG-MOL      K  
 FUEL        H2                           0.2031155     -1224.851    255.400
 FUEL        H2                           0.5181713     17272.595    886.486
 FUEL        H2                           0.2787133     17272.595    886.486
 OXIDANT     O2(cr)                       1.0000000    -11791.558    104.300

 O/F=    6.08707  %FUEL= 14.110200  R,EQ.RATIO= 1.303859  PHI,EQ.RATIO= 1.303859

                 CHAMBER   THROAT     EXIT
 Pinf/P            1.0000   1.7357   884.70
 P, BAR            197.95   114.05  0.22375
 T, K             3803.69  3593.35  1478.63
 RHO, KG/CU M    8.4115 0 5.1906 0 2.6001-2
 H, KJ/KG          629.52  -624.49 -9867.34
 U, KJ/KG        -1723.79 -2821.65 -10727.9
 G, KJ/KG        -66000.0 -63569.5 -35768.6
 S, KJ/(KG)(K)    17.5171  17.5171  17.5171

 M, (1/n)          13.439   13.598   14.287
 (dLV/dLP)t      -1.03199 -1.02619 -1.00000
 (dLV/dLT)p        1.5228   1.4533   1.0001
 Cp, KJ/(KG)(K)    9.1257   8.6023   3.0566
 GAMMAs            1.1432   1.1415   1.2353
 SON VEL,M/SEC     1640.2   1583.7   1031.0
 MACH NUMBER        0.000    1.000    4.444

 PERFORMANCE PARAMETERS

 Ae/At                      1.0000   69.000
 CSTAR, M/SEC               2408.1   2408.1
 CF                         0.6576   1.9027
 Ivac, M/SEC                2971.1   4769.7
 Isp, M/SEC                 1583.7   4581.9


 MASS FRACTIONS

 *H               0.00294  0.00247  0.00000
 HO2              0.00020  0.00011  0.00000
 *H2              0.03668  0.03566  0.03288
 H2O              0.86712  0.88826  0.96711
 H2O2             0.00007  0.00004  0.00000
 *O               0.00601  0.00423  0.00000
 *OH              0.07493  0.06020  0.00000
 *O2              0.01205  0.00903  0.00000

  * THERMODYNAMIC PROPERTIES FITTED TO 20000.K

 NOTE. WEIGHT FRACTION OF FUEL IN TOTAL FUELS AND OF OXIDANT IN TOTAL OXIDANTS





           THEORETICAL ROCKET PERFORMANCE ASSUMING FROZEN COMPOSITION
                                 AFTER POINT 2

 Pin =  2871.0 PSIA
 CASE = rocket,        

             REACTANT                    WT FRACTION      ENERGY      TEMP
                                          (SEE NOTE)     KJ/KG-MOL      K  
 FUEL        H2                           0.2031155     -1224.851    255.400
 FUEL        H2                           0.5181713     17272.595    886.486
 FUEL        H2                           0.2787133     17272.595    886.486
 OXIDANT     O2(cr)                       1.0000000    -11791.558    104.300

 O/F=    6.08707  %FUEL= 14.110200  R,EQ.RATIO= 1.303859  PHI,EQ.RATIO= 1.303859

                 CHAMBER   THROAT     EXIT
 Pinf/P            1.0000   1.7357  1095.96
 P, BAR            197.95   114.05  0.18062
 T, K             3803.69  3593.35  1096.75
 RHO, KG/CU M    8.4115 0 5.1906 0 2.6933-2
 H, KJ/KG          629.52  -624.49 -9153.47
 U, KJ/KG        -1723.79 -2821.65 -9824.08
 G, KJ/KG        -66000.0 -63569.5 -28365.3
 S, KJ/(KG)(K)    17.5171  17.5171  17.5171

 M, (1/n)          13.439   13.598   13.598
 Cp, KJ/(KG)(K)    9.1257   8.6023   2.8144
 GAMMAs            1.1432   1.1415   1.2776
 SON VEL,M/SEC     1640.2   1583.7    925.6
 MACH NUMBER        0.000    1.000    4.779

 PERFORMANCE PARAMETERS

 Ae/At                      1.0000   69.000
 CSTAR, M/SEC               2408.1   2408.1
 CF                         0.6576   1.8369
 Ivac, M/SEC                2971.1   4575.0
 Isp, M/SEC                 1583.7   4423.3

 MASS FRACTIONS

 *H              0.00247   HO2             0.00011   *H2             0.03566
 H2O             0.88826   H2O2            0.00004   *O              0.00423
 *OH             0.06020   *O2             0.00903

  * THERMODYNAMIC PROPERTIES FITTED TO 20000.K

 NOTE. WEIGHT FRACTION OF FUEL IN TOTAL FUELS AND OF OXIDANT IN TOTAL OXIDANTS



