
 *******************************************************************************

         NASA-GLENN CHEMICAL EQUILIBRIUM PROGRAM CEA2, MAY 21, 2004
                   BY  BONNIE MCBRIDE AND SANFORD GORDON
      REFS: NASA RP-1311, PART I, 1994 AND NASA RP-1311, PART II, 1996

 *******************************************************************************



 problem   case=rocket,
     rocket  equilibrium  frozen  nfz=2
   p,psia=2871.000000,
   sup,ae/at=69,
 react
   fuel=H2 wt=0.028660  t,k=255.400000
   fuel=H2 wt=0.073110  t,k=886.114407
   fuel=H2 wt=0.039338  t,k=886.114407
   oxid=O2(cr)  wt=0.858892  t,k=104.300000
     h,kj/mol=-11.791558  O 2
 output  massf short
     plot p t rho m cp gam mach cf isp
 end





              THEORETICAL ROCKET PERFORMANCE ASSUMING EQUILIBRIUM

           COMPOSITION DURING EXPANSION FROM INFINITE AREA COMBUSTOR

 Pin =  2871.0 PSIA
 CASE = rocket,        

             REACTANT                    WT FRACTION      ENERGY      TEMP
                                          (SEE NOTE)     KJ/KG-MOL      K  
 FUEL        H2                           0.2031068     -1224.851    255.400
 FUEL        H2                           0.5181138     17261.509    886.114
 FUEL        H2                           0.2787794     17261.509    886.114
 OXIDANT     O2(cr)                       1.0000000    -11791.558    104.300

 O/F=    6.08677  %FUEL= 14.110800  R,EQ.RATIO= 1.303923  PHI,EQ.RATIO= 1.303923

                 CHAMBER   THROAT     EXIT
 Pinf/P            1.0000   1.7357   884.76
 P, BAR            197.95   114.05  0.22373
 T, K             3803.59  3593.25  1478.44
 RHO, KG/CU M    8.4115 0 5.1906 0 2.6001-2
 H, KJ/KG          628.95  -625.05 -9867.71
 U, KJ/KG        -1724.35 -2822.21 -10728.2
 G, KJ/KG        -65999.8 -63569.1 -35766.1
 S, KJ/(KG)(K)    17.5173  17.5173  17.5173

 M, (1/n)          13.439   13.598   14.286
 (dLV/dLP)t      -1.03198 -1.02618 -1.00000
 (dLV/dLT)p        1.5227   1.4532   1.0001
 Cp, KJ/(KG)(K)    9.1248   8.6012   3.0565
 GAMMAs            1.1432   1.1415   1.2353
 SON VEL,M/SEC     1640.2   1583.7   1031.0
 MACH NUMBER        0.000    1.000    4.444

 PERFORMANCE PARAMETERS

 Ae/At                      1.0000   69.000
 CSTAR, M/SEC               2408.1   2408.1
 CF                         0.6577   1.9027
 Ivac, M/SEC                2971.1   4769.6
 Isp, M/SEC                 1583.7   4581.8


 MASS FRACTIONS

 *H               0.00294  0.00247  0.00000
 HO2              0.00020  0.00011  0.00000
 *H2              0.03669  0.03566  0.03289
 H2O              0.86714  0.88828  0.96711
 H2O2             0.00007  0.00004  0.00000
 *O               0.00600  0.00423  0.00000
 *OH              0.07491  0.06018  0.00000
 *O2              0.01205  0.00902  0.00000

  * THERMODYNAMIC PROPERTIES FITTED TO 20000.K

 NOTE. WEIGHT FRACTION OF FUEL IN TOTAL FUELS AND OF OXIDANT IN TOTAL OXIDANTS





           THEORETICAL ROCKET PERFORMANCE ASSUMING FROZEN COMPOSITION
                                 AFTER POINT 2

 Pin =  2871.0 PSIA
 CASE = rocket,        

             REACTANT                    WT FRACTION      ENERGY      TEMP
                                          (SEE NOTE)     KJ/KG-MOL      K  
 FUEL        H2                           0.2031068     -1224.851    255.400
 FUEL        H2                           0.5181138     17261.509    886.114
 FUEL        H2                           0.2787794     17261.509    886.114
 OXIDANT     O2(cr)                       1.0000000    -11791.558    104.300

 O/F=    6.08677  %FUEL= 14.110800  R,EQ.RATIO= 1.303923  PHI,EQ.RATIO= 1.303923

                 CHAMBER   THROAT     EXIT
 Pinf/P            1.0000   1.7357  1095.97
 P, BAR            197.95   114.05  0.18061
 T, K             3803.59  3593.25  1096.71
 RHO, KG/CU M    8.4115 0 5.1906 0 2.6933-2
 H, KJ/KG          628.95  -625.05 -9154.00
 U, KJ/KG        -1724.35 -2822.21 -9824.60
 G, KJ/KG        -65999.8 -63569.1 -28365.4
 S, KJ/(KG)(K)    17.5173  17.5173  17.5173

 M, (1/n)          13.439   13.598   13.598
 Cp, KJ/(KG)(K)    9.1248   8.6012   2.8145
 GAMMAs            1.1432   1.1415   1.2776
 SON VEL,M/SEC     1640.2   1583.7    925.6
 MACH NUMBER        0.000    1.000    4.779

 PERFORMANCE PARAMETERS

 Ae/At                      1.0000   69.000
 CSTAR, M/SEC               2408.1   2408.1
 CF                         0.6577   1.8369
 Ivac, M/SEC                2971.1   4574.9
 Isp, M/SEC                 1583.7   4423.3

 MASS FRACTIONS

 *H              0.00247   HO2             0.00011   *H2             0.03566
 H2O             0.88828   H2O2            0.00004   *O              0.00423
 *OH             0.06018   *O2             0.00902

  * THERMODYNAMIC PROPERTIES FITTED TO 20000.K

 NOTE. WEIGHT FRACTION OF FUEL IN TOTAL FUELS AND OF OXIDANT IN TOTAL OXIDANTS



