
 *******************************************************************************

         NASA-GLENN CHEMICAL EQUILIBRIUM PROGRAM CEA2, MAY 21, 2004
                   BY  BONNIE MCBRIDE AND SANFORD GORDON
      REFS: NASA RP-1311, PART I, 1994 AND NASA RP-1311, PART II, 1996

 *******************************************************************************



 problem   case=preburner o/f=0.610300,
     rocket  fac   ma=1086.772503
   p,psia=4812.000000,
 react
   fuel=H2(cr)  wt=1  t,k=148.200000
     h,kj/mol=-5.046048  H 2
   oxid=O2(cr)  wt=1  t,k=115.400000
     h,kj/mol=-10.956389  O 2
 output  massf short
     plot p t rho h m cp gam
 end





              THEORETICAL ROCKET PERFORMANCE ASSUMING EQUILIBRIUM

            COMPOSITION DURING EXPANSION FROM FINITE AREA COMBUSTOR

 Pin =  4812.0 PSIA
 MDOT/Ac =  1086.773 (KG/S)/M**2      Pinj/Pinf =  1.001019
 CASE = preburner      

             REACTANT                    WT FRACTION      ENERGY      TEMP
                                          (SEE NOTE)     KJ/KG-MOL      K  
 FUEL        H2(cr)                       1.0000000     -5046.048    148.200
 OXIDANT     O2(cr)                       1.0000000    -10956.389    115.400

 O/F=    0.61030  %FUEL= 62.100230  R,EQ.RATIO=13.004560  PHI,EQ.RATIO=13.004560

                 INJECTOR  COMB END  THROAT
 Pinj/P            1.0000   1.0020   1.8862
 P, BAR            331.77   331.10   175.89
 T, K              739.58   739.38   620.54
 RHO, KG/CU M    1.7514 1 1.7483 1 1.1067 1
 H, KJ/KG        -1684.23 -1686.16 -2785.13
 U, KJ/KG        -3578.55 -3579.95 -4374.55
 G, KJ/KG        -28138.0 -28134.4 -24982.6
 S, KJ/(KG)(K)    35.7684  35.7710  35.7710

 M, (1/n)           3.246    3.246    3.246
 (dLV/dLP)t      -1.00000 -1.00000 -1.00000
 (dLV/dLT)p        1.0000   1.0000   1.0000
 Cp, KJ/(KG)(K)    9.2916   9.2914   9.2090
 GAMMAs            1.3806   1.3806   1.3853
 SON VEL,M/SEC     1617.2   1616.9   1483.9
 MACH NUMBER        0.000    0.038    1.000

 PERFORMANCE PARAMETERS

 Ae/At                      15.111   1.0000
 CSTAR, M/SEC               2018.4   2018.4
 CF                         0.0308   0.7352
 Ivac, M/SEC               30531.0   2555.0
 Isp, M/SEC                   62.2   1483.8


 MASS FRACTIONS

 *H2              0.57325  0.57325  0.57325
 H2O              0.42675  0.42675  0.42675

  * THERMODYNAMIC PROPERTIES FITTED TO 20000.K

 NOTE. WEIGHT FRACTION OF FUEL IN TOTAL FUELS AND OF OXIDANT IN TOTAL OXIDANTS



