
 *******************************************************************************

         NASA-GLENN CHEMICAL EQUILIBRIUM PROGRAM CEA2, MAY 21, 2004
                   BY  BONNIE MCBRIDE AND SANFORD GORDON
      REFS: NASA RP-1311, PART I, 1994 AND NASA RP-1311, PART II, 1996

 *******************************************************************************



 problem   case=hyd
       tp   t,k=23.7,  p,psia=298,
 react
   fuel=H2(cr)  wt=1  t,k=23.7
     h,kj/mol=-8.824  H 2
 output  short
     plot p t rho h m cp gam
  end
 THE TEMPERATURE=  0.2370E+02 IS OUT OF RANGE FOR POINT    1(EQLBRM)

 CALCULATIONS STOPPED AFTER POINT  1(EQLBRM)




               THERMODYNAMIC EQUILIBRIUM PROPERTIES AT ASSIGNED

                           TEMPERATURE AND PRESSURE

 CASE = hyd            

             REACTANT                    WT FRACTION      ENERGY      TEMP
                                          (SEE NOTE)     KJ/KG-MOL      K  
 FUEL        H2(cr)                       1.0000000     -8824.000     23.700

 O/F=    0.00000  %FUEL=100.000000  R,EQ.RATIO= 0.000000  PHI,EQ.RATIO= 0.000000

 THERMODYNAMIC PROPERTIES

 P, BAR            20.546
 T, K               23.70
 RHO, KG/CU M    2.1019 1
 H, KJ/KG        -5701.78
 U, KJ/KG        -5799.53
 G, KJ/KG        -4698.55
 S, KJ/(KG)(K)   -42.3306

 M, (1/n)           2.016
 (dLV/dLP)t      -1.00000
 (dLV/dLT)p        1.0000
 Cp, KJ/(KG)(K)  192.7692
 GAMMAs            1.0219
 SON VEL,M/SEC      316.1

 MOLE FRACTIONS

 *H2              1.00000

  * THERMODYNAMIC PROPERTIES FITTED TO 20000.K

 NOTE. WEIGHT FRACTION OF FUEL IN TOTAL FUELS AND OF OXIDANT IN TOTAL OXIDANTS



