
 *******************************************************************************

         NASA-GLENN CHEMICAL EQUILIBRIUM PROGRAM CEA2, MAY 21, 2004
                   BY  BONNIE MCBRIDE AND SANFORD GORDON
      REFS: NASA RP-1311, PART I, 1994 AND NASA RP-1311, PART II, 1996

 *******************************************************************************



 problem   case=exam o/f=7,7.2,7.4,7.6,7.8,8,8.2,8.4,8.6,8.8,
       hp   p,bar=100,10,1,  t,k=3800
 react
   oxid=Air wt=1 t,k=700.0
   fuel=C7H8(L) wt=.4 t,k=298.15
   fuel=C8H18(L),n-octa wt=.6 t,k=298.15
 omit
   CCN CNC C2N2 C2O C3H4,allene C3H4,propyne C3H4,cyclo- C3 C3H5,allyl
   C3H6,propylene C3H6,cyclo- C3H3,propargyl C3H6O C3H7,n-propyl
   C3H7,i-propyl Jet-A(g) C3O2 C4 C4H2 C3H8O,2propanol C4H4,1,3-cyclo-
   C4H6,butadiene C4H6,2-butyne C3H8O,1propanol C4H8,tr2-butene
   C4H8,isobutene C4H8,cyclo- C4H6,cyclo- (CH3COOH)2 C4H9,n-butyl
   C4H9,i-butyl C4H8,1-butene C4H9,s-butyl C4H9,t-butyl C4H10,isobutane
   C4H8,cis2-buten C4H10,n-butane C4N2 C5 C3H8 C5H6,1,3cyclo-
   C5H8,cyclo- C5H10,1-pentene C10H21,n-decyl C5H10,cyclo- C5H11,pentyl
   C5H11,t-pentyl C12H10,biphenyl C5H12,n-pentane C5H12,i-pentane
   CH3C(CH3)2CH3 C12H9,o-bipheny C6H6 C6H5OH,phenol C6H10,cyclo- C6H2
   C6H12,1-hexene C6H12,cyclo- C6H13,n-hexyl C6H5,phenyl C7H7,benzyl
   C7H8 C7H8O,cresol-mx C6H5O,phenoxy C7H14,1-heptene C7H15,n-heptyl
   C7H16,n-heptane C10H8,azulene C8H8,styrene C8H10,ethylbenz
   C8H16,1-octene C10H8,napthlene C8H17,n-octyl C8H18,isooctane
   C8H18,n-octane C9H19,n-nonyl Jet-A(L) C6H6(L) H2O(s) H2O(L)
 output    trace=1.e-15
 end

 OPTIONS: TP=F  HP=T  SP=F  TV=F  UV=F  SV=F  DETN=F  SHOCK=F  REFL=F  INCD=F
 RKT=F  FROZ=F  EQL=F  IONS=F  SIUNIT=T  DEBUGF=F  SHKDBG=F  DETDBG=F  TRNSPT=F

 T,K =  3800.0000

 TRACE= 1.00E-15  S/R= 0.000000E+00  H/R= 0.000000E+00  U/R= 0.000000E+00

 P,BAR =   100.000000    10.000000     1.000000

    REACTANT          WT.FRAC   (ENERGY/R),K   TEMP,K  DENSITY
        EXPLODED FORMULA
 O: Air              1.000000   0.143092E+04   700.00  0.0000
          N  1.56168  O  0.41959  AR 0.00937  C  0.00032
 F: C7H8(L)          0.400000   0.146491E+04   298.15  0.0000
          C  7.00000  H  8.00000
 F: C8H18(L),n-octa  0.600000  -0.300992E+05   298.15  0.0000
          C  8.00000  H 18.00000

  SPECIES BEING CONSIDERED IN THIS SYSTEM
 (CONDENSED PHASE MAY HAVE NAME LISTED SEVERAL TIMES)
  LAST thermo.inp UPDATE:    9/09/04

  g 3/98  *Ar              g 7/97  *C               tpis79  *CH            
  g 4/02  CH2              g 4/02  CH3              g11/00  CH2OH          
  g 7/00  CH3O             g 8/99  CH4              g 7/00  CH3OH          
  srd 01  CH3OOH           g 8/99  *CN              g12/99  CNN            
  tpis79  *CO              g 9/99  *CO2             tpis91  COOH           
  tpis91  *C2              g 6/01  C2H              g 1/91  C2H2,acetylene 
  g 5/01  C2H2,vinylidene  g 4/02  CH2CO,ketene     g 3/02  O(CH)2O        
  srd 01  HO(CO)2OH        g 7/01  C2H3,vinyl       g 9/00  CH3CN          
  g 6/96  CH3CO,acetyl     g 1/00  C2H4             g 8/88  C2H4O,ethylen-o
  g 8/88  CH3CHO,ethanal   g 6/00  CH3COOH          srd 01  OHCH2COOH      
  g 7/00  C2H5             g 7/00  C2H6             g 8/88  CH3N2CH3       
  g 8/88  C2H5OH           g 7/00  CH3OCH3          srd 01  CH3O2CH3       
  srd 01  OCCN             n 4/98  C3H3,1-propynl   n 4/98  C3H3,2-propynl 
  g 6/01  C3H6O,propylox   g 6/97  C3H6O,acetone    g 1/02  C3H6O,propanal 
  srd 01  CNCOCN           g 7/01  C4H2,butadiyne   n10/93  C4H6,1butyne   
  n10/93  C4H6,2butyne     g 6/01  C6H14,n-hexane   n10/85  C7H16,2-methylh
  g 3/01  C10H8,naphthale  g 6/97  *H               g 6/01  HCN            
  g 1/01  HCO              tpis89  HCCN             g 6/01  HCCO           
  g 6/01  HNC              g 7/00  HNCO             g10/01  HNO            
  tpis89  HNO2             g 5/99  HNO3             g 4/02  HO2            
  tpis78  *H2              g 5/01  HCHO,formaldehy  g 6/01  HCOOH          
  g 8/89  H2O              g 6/99  H2O2             g 6/01  (HCOOH)2       
  g 5/97  *N               g 6/01  NCO              g 4/99  *NH            
  g 3/01  NH2              tpis89  NH3              tpis89  NH2OH          
  tpis89  *NO              g 4/99  NO2              j12/64  NO3            
  tpis78  *N2              g 6/01  NCN              g 5/99  N2H2           
  tpis89  NH2NO2           g 4/99  N2H4             g 4/99  N2O            
  g 4/99  N2O3             tpis89  N2O4             g 4/99  N2O5           
  tpis89  N3               g 4/99  N3H              g 5/97  *O             
  g 4/02  *OH              tpis89  *O2              g 8/01  O3             
  n 4/83  C(gr)            n 4/83  C(gr)            n 4/83  C(gr)          
  g11/99  H2O(cr)        

 O/F =   7.000000

                       EFFECTIVE FUEL     EFFECTIVE OXIDANT        MIXTURE
 ENTHALPY                  h(2)/R              h(1)/R               h0/R
 (KG-MOL)(K)/KG       -0.15174026E+03      0.49401390E+02      0.24258684E+02

 KG-FORM.WT./KG             bi(2)               bi(1)               b0i
  *N                   0.00000000E+00      0.53915890E-01      0.47176404E-01
  *O                   0.00000000E+00      0.14486046E-01      0.12675290E-01
  *Ar                  0.00000000E+00      0.32331996E-03      0.28290496E-03
  *C                   0.72410090E-01      0.11013248E-04      0.90608978E-02
  *H                   0.12927767E+00      0.00000000E+00      0.16159709E-01

 POINT ITN      T            N           O           AR          C 
                    H 
   1   16    1838.901     -11.305     -24.437     -21.449      -7.234
                  -8.314
   2    4    1838.432     -12.456     -24.442     -23.751      -9.532
                  -9.464
   3    4    1837.644     -13.606     -24.448     -26.052     -11.830
                 -10.615




         THERMODYNAMIC EQUILIBRIUM COMBUSTION PROPERTIES AT ASSIGNED

                                   PRESSURES

 CASE = exam           

             REACTANT                    WT FRACTION      ENERGY      TEMP
                                          (SEE NOTE)     KJ/KG-MOL      K  
 OXIDANT     Air                          1.0000000     11897.374    700.000
 FUEL        C7H8(L)                      0.4000000     12179.997    298.150
 FUEL        C8H18(L),n-octa              0.6000000   -250260.000    298.150

 O/F=    7.00000  %FUEL= 12.500000  R,EQ.RATIO= 2.067144  PHI,EQ.RATIO= 2.068769

 THERMODYNAMIC PROPERTIES

 P, BAR            100.00   10.000   1.0000
 T, K             1838.90  1838.43  1837.64
 RHO, KG/CU M    1.5950 1 1.5951 0 1.5957-1
 H, KJ/KG          201.70   201.70   201.70
 U, KJ/KG         -425.27  -425.20  -424.98
 G, KJ/KG        -16039.0 -17478.3 -18913.7
 S, KJ/(KG)(K)     8.8318   9.6169  10.4021

 M, (1/n)          24.387   24.383   24.381
 (dLV/dLP)t      -1.00018 -1.00003 -1.00005
 (dLV/dLT)p        1.0009   1.0005   1.0014
 Cp, KJ/(KG)(K)    1.5322   1.5338   1.5433
 GAMMAs            1.2866   1.2862   1.2846
 SON VEL,M/SEC      898.1    898.0    897.2

 MOLE FRACTIONS

 *Ar             6.8991-3 6.8980-3 6.8975-3
 *CH             2.527-15 7.948-16 2.481-16
 CH2             5.818-12 5.810-13 5.768-14
 CH3             3.206 -8 1.017 -9 3.215-11
 CH2OH           8.746-11 2.767-12 8.722-14
 CH3O            6.865-12 2.170-13 6.834-15
 CH4             1.1711-5 1.1800-7 1.1867-9
 CH3OH           3.260 -9 3.273-11 3.280-13
 *CN             4.644-11 1.464-11 4.589-12
 *CO             1.9693-1 1.9696-1 1.9693-1
 *CO2            2.3992-2 2.3970-2 2.3983-2
 COOH            1.5127-8 4.7677-9 1.5007-9
 C2H             4.140-15 1.308-16 4.100-18
 C2H2,acetylene  2.959 -9 2.974-11 2.977-13
 C2H2,vinylidene 1.061-13 1.063-15 1.059-17
 CH2CO,ketene    1.059 -8 1.064-10 1.065-12
 O(CH)2O         1.040-12 1.041-14 1.040-16
 HO(CO)2OH       6.218-15 6.207-17 6.201-19
 C2H3,vinyl      5.706-13 1.813-15 5.727-18
 CH3CN           5.693-10 5.741-13 5.773-16
 CH3CO,acetyl    5.771-12 1.832-14 5.796-17
 C2H4            7.157-10 7.224-13 7.267-16
 C2H4O,ethylen-o 1.567-15 1.575-18 1.578-21
 CH3CHO,ethanal  3.778-11 3.806-14 3.825-17
 CH3COOH         3.288-12 3.307-15 3.323-18
 OHCH2COOH       2.892-15 2.899-18 2.904-21
 C2H5            2.284-13 7.287-17 2.314-20
 C2H6            1.021-11 1.034-15 1.044-19
 C2H5OH          1.935-14 1.954-18 1.967-22
 OCCN            1.383-12 4.366-14 1.373-15
 C3H3,2-propynl  9.658-15 3.078-18 9.752-22
 *H              1.7981-5 5.6678-5 1.7807-4
 HCN             2.2338-5 2.2387-6 2.2386-7
 HCO             1.8561-7 5.8588-8 1.8444-8
 HCCO            3.379-12 1.068-13 3.362-15
 HNC             8.1148-7 8.1242-8 8.1095-9
 HNCO            3.1166-6 3.1188-7 3.1183-8
 HNO             3.945-11 3.918-11 3.878-11
 HNO2            6.372-14 6.311-14 6.234-14
 HO2             8.502-14 2.659-13 8.287-13
 *H2             1.3266-1 1.3280-1 1.3277-1
 HCHO,formaldehy 1.0976-6 1.0989-7 1.0986-8
 HCOOH           5.2732-7 5.2726-8 5.2713-9
 H2O             6.4184-2 6.4159-2 6.4133-2
 H2O2            2.500-12 2.480-12 2.454-12
 *N              5.460-12 1.713-11 5.344-11
 NCO             1.672-10 5.264-11 1.653-11
 *NH             2.208-10 2.196-10 2.174-10
 NH2             4.4491-8 1.4041-8 4.4160-9
 NH3             9.9513-5 9.9767-6 9.9878-7
 NH2OH           5.357-12 5.340-13 5.307-14
 *NO             3.2730-8 1.0275-7 3.2177-7
 NO2             6.191-15 1.934-14 6.024-14
 *N2             5.7517-1 5.7514-1 5.7510-1
 NCN             1.716-15 1.708-16 1.690-17
 N2H2            7.381-12 7.363-13 7.317-14
 N2H4            1.658-13 1.659-15 1.654-17
 N2O             1.603-11 1.592-11 1.577-11
 N3H             5.660-14 5.635-15 5.587-16
 *O              6.472-11 6.408-10 6.317 -9
 *OH             7.1640-7 2.2525-6 7.0642-6
 *O2             1.377-11 1.362-10 1.342 -9

  * THERMODYNAMIC PROPERTIES FITTED TO 20000.K

    PRODUCTS WHICH WERE CONSIDERED BUT WHOSE MOLE FRACTIONS
    WERE LESS THAN 1.000000E-15 FOR ALL ASSIGNED CONDITIONS

 *C              CH3OOH          CNN             *C2             CH3N2CH3       
 CH3OCH3         CH3O2CH3        C3H3,1-propynl  C3H6O,propylox  C3H6O,acetone  
 C3H6O,propanal  CNCOCN          C4H2,butadiyne  C4H6,1butyne    C4H6,2butyne   
 C6H14,n-hexane  C7H16,2-methylh C10H8,naphthale HCCN            HNO3           
 (HCOOH)2        NO3             NH2NO2          N2O3            N2O4           
 N2O5            N3              O3              C(gr)           H2O(cr)        

 NOTE. WEIGHT FRACTION OF FUEL IN TOTAL FUELS AND OF OXIDANT IN TOTAL OXIDANTS






 O/F =   7.200000

                       EFFECTIVE FUEL     EFFECTIVE OXIDANT        MIXTURE
 ENTHALPY                  h(2)/R              h(1)/R               h0/R
 (KG-MOL)(K)/KG       -0.15174026E+03      0.49401390E+02      0.24871920E+02

 KG-FORM.WT./KG             bi(2)               bi(1)               b0i
  *N                   0.00000000E+00      0.53915890E-01      0.47340781E-01
  *O                   0.00000000E+00      0.14486046E-01      0.12719455E-01
  *Ar                  0.00000000E+00      0.32331996E-03      0.28389069E-03
  *C                   0.72410090E-01      0.11013248E-04      0.88401689E-02
  *H                   0.12927767E+00      0.00000000E+00      0.15765570E-01

 POINT ITN      T            N           O           AR          C 
                    H 
   1    4    1877.635     -11.333     -23.990     -21.481      -7.630
                  -8.379
   2    4    1877.143     -12.484     -23.994     -23.783      -9.928
                  -9.530
   3    4    1876.112     -13.635     -24.002     -26.084     -12.225
                 -10.680




         THERMODYNAMIC EQUILIBRIUM COMBUSTION PROPERTIES AT ASSIGNED

                                   PRESSURES

 CASE = exam           

             REACTANT                    WT FRACTION      ENERGY      TEMP
                                          (SEE NOTE)     KJ/KG-MOL      K  
 OXIDANT     Air                          1.0000000     11897.374    700.000
 FUEL        C7H8(L)                      0.4000000     12179.997    298.150
 FUEL        C8H18(L),n-octa              0.6000000   -250260.000    298.150

 O/F=    7.20000  %FUEL= 12.195122  R,EQ.RATIO= 2.009766  PHI,EQ.RATIO= 2.011303

 THERMODYNAMIC PROPERTIES

 P, BAR            100.00   10.000   1.0000
 T, K             1877.64  1877.14  1876.11
 RHO, KG/CU M    1.5749 1 1.5751 0 1.5758-1
 H, KJ/KG          206.80   206.80   206.80
 U, KJ/KG         -428.17  -428.09  -427.80
 G, KJ/KG        -16350.3 -17807.8 -19259.0
 S, KJ/(KG)(K)     8.8180   9.5968  10.3756

 M, (1/n)          24.586   24.583   24.581
 (dLV/dLP)t      -1.00014 -1.00003 -1.00006
 (dLV/dLT)p        1.0007   1.0006   1.0018
 Cp, KJ/(KG)(K)    1.5292   1.5322   1.5443
 GAMMAs            1.2842   1.2837   1.2817
 SON VEL,M/SEC      903.0    902.8    901.9

 MOLE FRACTIONS

 *Ar             6.9799-3 6.9789-3 6.9783-3
 *CH             3.823-15 1.202-15 3.737-16
 CH2             6.402-12 6.389-13 6.330-14
 CH3             2.446 -8 7.753-10 2.450-11
 CH2OH           8.660-11 2.738-12 8.625-14
 CH3O            7.174-12 2.267-13 7.130-15
 CH4             6.399 -6 6.442 -8 6.487-10
 CH3OH           2.421 -9 2.430-11 2.436-13
 *CN             5.888-11 1.855-11 5.804-12
 *CO             1.9136-1 1.9137-1 1.9134-1
 *CO2            2.5959-2 2.5942-2 2.5960-2
 COOH            2.0136-8 6.3472-9 1.9956-9
 C2H             4.218-15 1.331-16 4.165-18
 C2H2,acetylene  1.843 -9 1.850-11 1.852-13
 C2H2,vinylidene 8.422-14 8.431-16 8.386-18
 CH2CO,ketene    7.330 -9 7.355-11 7.369-13
 O(CH)2O         9.457-13 9.463-15 9.448-17
 HO(CO)2OH       7.428-15 7.417-17 7.407-19
 C2H3,vinyl      3.740-13 1.187-15 3.748-18
 CH3CN           2.756-10 2.776-13 2.795-16
 CH3CO,acetyl    4.075-12 1.293-14 4.089-17
 C2H4            3.246-10 3.273-13 3.296-16
 C2H4O,ethylen-o 1.005-15 1.009-18 1.011-21
 CH3CHO,ethanal  2.072-11 2.085-14 2.097-17
 CH3COOH         2.071-12 2.082-15 2.095-18
 OHCH2COOH       2.456-15 2.461-18 2.465-21
 C2H5            1.092-13 3.479-17 1.105-20
 C2H6            3.583-12 3.624-16 3.667-20
 C2H5OH          9.027-15 9.103-19 9.176-23
 OCCN            1.471-12 4.643-14 1.458-15
 C3H3,2-propynl  4.678-15 1.489-18 4.716-22
 *H              2.3614-5 7.4421-5 2.3342-4
 HCN             1.8184-5 1.8215-6 1.8211-7
 HCO             2.1397-7 6.7526-8 2.1232-8
 HCCO            3.293-12 1.041-13 3.271-15
 HNC             7.1857-7 7.1905-8 7.1733-9
 HNCO            2.9273-6 2.9289-7 2.9281-8
 HNO             7.130-11 7.083-11 6.993-11
 HNO2            1.472-13 1.459-13 1.436-13
 HO2             2.186-13 6.841-13 2.124-12
 *H2             1.2420-1 1.2431-1 1.2426-1
 HCHO,formaldehy 9.9412-7 9.9510-8 9.9460-9
 HCOOH           5.4681-7 5.4677-8 5.4657-9
 H2O             6.9442-2 6.9421-2 6.9384-2
 H2O2            5.085-12 5.047-12 4.980-12
 *N              1.049-11 3.290-11 1.023-10
 NCO             2.289-10 7.210-11 2.259-11
 *NH             3.479-10 3.460-10 3.416-10
 NH2             5.3701-8 1.6943-8 5.3209-9
 NH3             8.4096-5 8.4280-6 8.4389-7
 NH2OH           7.390-12 7.366-13 7.308-14
 *NO             6.0398-8 1.8967-7 5.9252-7
 NO2             1.718-14 5.370-14 1.666-13
 *N2             5.8192-1 5.8189-1 5.8184-1
 NCN             2.410-15 2.398-16 2.367-17
 N2H2            9.298-12 9.273-13 9.199-14
 N2H4            1.659-13 1.659-15 1.652-17
 N2O             2.962-11 2.942-11 2.906-11
 N3              1.512-15 4.745-16 1.477-16
 N3H             8.323-14 8.284-15 8.195-16
 *O              1.481-10 1.466 -9 1.440 -8
 *OH             1.1787-6 3.7067-6 1.1600-5
 *O2             3.622-11 3.583-10 3.519 -9

  * THERMODYNAMIC PROPERTIES FITTED TO 20000.K

    PRODUCTS WHICH WERE CONSIDERED BUT WHOSE MOLE FRACTIONS
    WERE LESS THAN 1.000000E-15 FOR ALL ASSIGNED CONDITIONS

 *C              CH3OOH          CNN             *C2             CH3N2CH3       
 CH3OCH3         CH3O2CH3        C3H3,1-propynl  C3H6O,propylox  C3H6O,acetone  
 C3H6O,propanal  CNCOCN          C4H2,butadiyne  C4H6,1butyne    C4H6,2butyne   
 C6H14,n-hexane  C7H16,2-methylh C10H8,naphthale HCCN            HNO3           
 (HCOOH)2        NO3             NH2NO2          N2O3            N2O4           
 N2O5            O3              C(gr)           H2O(cr)        

 NOTE. WEIGHT FRACTION OF FUEL IN TOTAL FUELS AND OF OXIDANT IN TOTAL OXIDANTS






 O/F =   7.400000

                       EFFECTIVE FUEL     EFFECTIVE OXIDANT        MIXTURE
 ENTHALPY                  h(2)/R              h(1)/R               h0/R
 (KG-MOL)(K)/KG       -0.15174026E+03      0.49401390E+02      0.25455955E+02

 KG-FORM.WT./KG             bi(2)               bi(1)               b0i
  *N                   0.00000000E+00      0.53915890E-01      0.47497332E-01
  *O                   0.00000000E+00      0.14486046E-01      0.12761517E-01
  *Ar                  0.00000000E+00      0.32331996E-03      0.28482948E-03
  *C                   0.72410090E-01      0.11013248E-04      0.86299509E-02
  *H                   0.12927767E+00      0.00000000E+00      0.15390199E-01

 POINT ITN      T            N           O           AR          C 
                    H 
   1    4    1914.822     -11.360     -23.574     -21.511      -8.002
                  -8.444
   2    4    1914.271     -12.511     -23.579     -23.813     -10.301
                  -9.594
   3    4    1912.947     -13.661     -23.589     -26.114     -12.596
                 -10.745




         THERMODYNAMIC EQUILIBRIUM COMBUSTION PROPERTIES AT ASSIGNED

                                   PRESSURES

 CASE = exam           

             REACTANT                    WT FRACTION      ENERGY      TEMP
                                          (SEE NOTE)     KJ/KG-MOL      K  
 OXIDANT     Air                          1.0000000     11897.374    700.000
 FUEL        C7H8(L)                      0.4000000     12179.997    298.150
 FUEL        C8H18(L),n-octa              0.6000000   -250260.000    298.150

 O/F=    7.40000  %FUEL= 11.904762  R,EQ.RATIO= 1.955489  PHI,EQ.RATIO= 1.956944

 THERMODYNAMIC PROPERTIES

 P, BAR            100.00   10.000   1.0000
 T, K             1914.82  1914.27  1912.95
 RHO, KG/CU M    1.5565 1 1.5567 0 1.5576-1
 H, KJ/KG          211.65   211.65   211.65
 U, KJ/KG         -430.83  -430.73  -430.36
 G, KJ/KG        -16646.3 -18120.6 -19586.1
 S, KJ/(KG)(K)     8.8040   9.5766  10.3493

 M, (1/n)          24.780   24.777   24.774
 (dLV/dLP)t      -1.00011 -1.00003 -1.00008
 (dLV/dLT)p        1.0006   1.0008   1.0023
 Cp, KJ/(KG)(K)    1.5265   1.5307   1.5458
 GAMMAs            1.2820   1.2813   1.2788
 SON VEL,M/SEC      907.6    907.2    906.1

 MOLE FRACTIONS

 *Ar             7.0581-3 7.0572-3 7.0564-3
 *CH             5.545-15 1.741-15 5.395-16
 CH2             6.902-12 6.882-13 6.803-14
 CH3             1.874 -8 5.939-10 1.876-11
 CH2OH           8.474-11 2.678-12 8.428-14
 CH3O            7.381-12 2.331-13 7.322-15
 CH4             3.596 -6 3.619 -8 3.649-10
 CH3OH           1.812 -9 1.817-11 1.823-13
 *CN             7.284-11 2.293-11 7.156-12
 *CO             1.8587-1 1.8588-1 1.8583-1
 *CO2            2.7953-2 2.7941-2 2.7965-2
 COOH            2.6160-8 8.2452-9 2.5887-9
 C2H             4.225-15 1.332-16 4.156-18
 C2H2,acetylene  1.168 -9 1.172-11 1.174-13
 C2H2,vinylidene 6.675-14 6.677-16 6.632-18
 CH2CO,ketene    5.141 -9 5.157-11 5.168-13
 O(CH)2O         8.563-13 8.566-15 8.549-17
 HO(CO)2OH       8.720-15 8.708-17 8.694-19
 C2H3,vinyl      2.478-13 7.857-16 2.480-18
 CH3CN           1.381-10 1.391-13 1.402-16
 CH3CO,acetyl    2.903-12 9.204-15 2.911-17
 C2H4            1.526-10 1.538-13 1.551-16
 CH3CHO,ethanal  1.165-11 1.172-14 1.180-17
 CH3COOH         1.329-12 1.336-15 1.345-18
 OHCH2COOH       2.084-15 2.088-18 2.092-21
 C2H5            5.373-14 1.710-17 5.438-21
 C2H6            1.322-12 1.336-16 1.355-20
 C2H5OH          4.344-15 4.378-19 4.420-23
 OCCN            1.545-12 4.873-14 1.527-15
 C3H3,2-propynl  2.330-15 7.408-19 2.347-22
 *H              3.0261-5 9.5334-5 2.9843-4
 HCN             1.4903-5 1.4923-6 1.4918-7
 HCO             2.4250-7 7.6504-8 2.4021-8
 HCCO            3.178-12 1.004-13 3.150-15
 HNC             6.3640-7 6.3655-8 6.3460-9
 HNCO            2.7477-6 2.7489-7 2.7478-8
 HNO             1.232-10 1.223-10 1.204-10
 HNO2            3.200-13 3.170-13 3.110-13
 HO2             5.244-13 1.641-12 5.072-12
 *H2             1.1610-1 1.1618-1 1.1611-1
 HCHO,formaldehy 8.9916-7 8.9984-8 8.9920-9
 HCOOH           5.6260-7 5.6255-8 5.6226-9
 H2O             7.4443-2 7.4421-2 7.4371-2
 H2O2            9.796-12 9.720-12 9.562-12
 *N              1.916-11 6.005-11 1.860-10
 NCO             3.053-10 9.611-11 3.006-11
 *NH             5.275-10 5.242-10 5.160-10
 NH2             6.3460-8 2.0014-8 6.2744-9
 NH3             7.1304-5 7.1445-6 7.1550-7
 NH2OH           9.886-12 9.851-13 9.755-14
 *NO             1.0668-7 3.3493-7 1.0433-6
 NO2             4.436-14 1.386-13 4.282-13
 *N2             5.8845-1 5.8841-1 5.8835-1
 NCN             3.279-15 3.260-16 3.207-17
 N2H2            1.144-11 1.140-12 1.129-13
 N2H4            1.639-13 1.638-15 1.630-17
 N2O             5.240-11 5.203-11 5.126-11
 N3              2.664-15 8.358-16 2.592-16
 N3H             1.185-13 1.179-14 1.163-15
 *O              3.187-10 3.155 -9 3.086 -8
 *OH             1.8661-6 5.8669-6 1.8316-5
 *O2             8.899-11 8.801-10 8.610 -9

  * THERMODYNAMIC PROPERTIES FITTED TO 20000.K

    PRODUCTS WHICH WERE CONSIDERED BUT WHOSE MOLE FRACTIONS
    WERE LESS THAN 1.000000E-15 FOR ALL ASSIGNED CONDITIONS

 *C              CH3OOH          CNN             *C2             C2H4O,ethylen-o
 CH3N2CH3        CH3OCH3         CH3O2CH3        C3H3,1-propynl  C3H6O,propylox 
 C3H6O,acetone   C3H6O,propanal  CNCOCN          C4H2,butadiyne  C4H6,1butyne   
 C4H6,2butyne    C6H14,n-hexane  C7H16,2-methylh C10H8,naphthale HCCN           
 HNO3            (HCOOH)2        NO3             NH2NO2          N2O3           
 N2O4            N2O5            O3              C(gr)           H2O(cr)        

 NOTE. WEIGHT FRACTION OF FUEL IN TOTAL FUELS AND OF OXIDANT IN TOTAL OXIDANTS






 O/F =   7.600000

                       EFFECTIVE FUEL     EFFECTIVE OXIDANT        MIXTURE
 ENTHALPY                  h(2)/R              h(1)/R               h0/R
 (KG-MOL)(K)/KG       -0.15174026E+03      0.49401390E+02      0.26012826E+02

 KG-FORM.WT./KG             bi(2)               bi(1)               b0i
  *N                   0.00000000E+00      0.53915890E-01      0.47646600E-01
  *O                   0.00000000E+00      0.14486046E-01      0.12801622E-01
  *Ar                  0.00000000E+00      0.32331996E-03      0.28572461E-03
  *C                   0.72410090E-01      0.11013248E-04      0.84295105E-02
  *H                   0.12927767E+00      0.00000000E+00      0.15032287E-01

 POINT ITN      T            N           O           AR          C 
                    H 
   1    4    1950.556     -11.386     -23.187     -21.539      -8.355
                  -8.508
   2    4    1949.919     -12.537     -23.192     -23.841     -10.653
                  -9.658
   3    4    1948.249     -13.687     -23.204     -26.142     -12.947
                 -10.808




         THERMODYNAMIC EQUILIBRIUM COMBUSTION PROPERTIES AT ASSIGNED

                                   PRESSURES

 CASE = exam           

             REACTANT                    WT FRACTION      ENERGY      TEMP
                                          (SEE NOTE)     KJ/KG-MOL      K  
 OXIDANT     Air                          1.0000000     11897.374    700.000
 FUEL        C7H8(L)                      0.4000000     12179.997    298.150
 FUEL        C8H18(L),n-octa              0.6000000   -250260.000    298.150

 O/F=    7.60000  %FUEL= 11.627907  R,EQ.RATIO= 1.904068  PHI,EQ.RATIO= 1.905445

 THERMODYNAMIC PROPERTIES

 P, BAR            100.00   10.000   1.0000
 T, K             1950.56  1949.92  1948.25
 RHO, KG/CU M    1.5395 1 1.5398 0 1.5409-1
 H, KJ/KG          216.28   216.28   216.28
 U, KJ/KG         -433.28  -433.14  -432.68
 G, KJ/KG        -16928.3 -18417.9 -19896.2
 S, KJ/(KG)(K)     8.7896   9.5564  10.3233

 M, (1/n)          24.967   24.964   24.961
 (dLV/dLP)t      -1.00010 -1.00004 -1.00010
 (dLV/dLT)p        1.0006   1.0009   1.0029
 Cp, KJ/(KG)(K)    1.5240   1.5295   1.5479
 GAMMAs            1.2799   1.2790   1.2760
 SON VEL,M/SEC      911.8    911.4    910.0

 MOLE FRACTIONS

 *Ar             7.1338-3 7.1330-3 7.1319-3
 *CH             7.744-15 2.429-15 7.491-16
 CH2             7.300-12 7.273-13 7.171-14
 CH3             1.441 -8 4.565-10 1.441-11
 CH2OH           8.203-11 2.591-12 8.144-14
 CH3O            7.485-12 2.363-13 7.409-15
 CH4             2.069 -6 2.082 -8 2.102-10
 CH3OH           1.364 -9 1.368-11 1.373-13
 *CN             8.811-11 2.772-11 8.624-12
 *CO             1.8046-1 1.8046-1 1.8040-1
 *CO2            2.9987-2 2.9979-2 3.0010-2
 COOH            3.3273-8 1.0484-8 3.2864-9
 C2H             4.162-15 1.311-16 4.077-18
 C2H2,acetylene  7.515-10 7.537-12 7.545-14
 C2H2,vinylidene 5.277-14 5.274-16 5.229-18
 CH2CO,ketene    3.645 -9 3.655-11 3.665-13
 O(CH)2O         7.724-13 7.724-15 7.704-17
 HO(CO)2OH       1.009-14 1.007-16 1.005-18
 C2H3,vinyl      1.654-13 5.241-16 1.653-18
 CH3CN           7.127-11 7.174-14 7.242-17
 CH3CO,acetyl    2.082-12 6.597-15 2.086-17
 C2H4            7.397-11 7.451-14 7.526-17
 CH3CHO,ethanal  6.689-12 6.728-15 6.783-18
 CH3COOH         8.664-13 8.708-16 8.780-19
 OHCH2COOH       1.766-15 1.769-18 1.773-21
 C2H5            2.706-14 8.611-18 2.740-21
 C2H6            5.086-13 5.140-17 5.226-21
 C2H5OH          2.146-15 2.162-19 2.186-23
 OCCN            1.602-12 5.049-14 1.580-15
 C3H3,2-propynl  1.187-15 3.771-19 1.195-22
 *H              3.7944-5 1.1947-4 3.7315-4
 HCN             1.2277-5 1.2290-6 1.2284-7
 HCO             2.7065-7 8.5348-8 2.6755-8
 HCCO            3.037-12 9.585-14 3.003-15
 HNC             5.6324-7 5.6315-8 5.6099-9
 HNCO            2.5770-6 2.5778-7 2.5764-8
 HNO             2.045-10 2.030-10 1.991-10
 HNO2            6.598-13 6.533-13 6.383-13
 HO2             1.184-12 3.701-12 1.139-11
 *H2             1.0835-1 1.0840-1 1.0832-1
 HCHO,formaldehy 8.1197-7 8.1242-8 8.1162-9
 HCOOH           5.7495-7 5.7488-8 5.7446-9
 H2O             7.9185-2 7.9160-2 7.9092-2
 H2O2            1.800-11 1.785-11 1.749-11
 *N              3.345-11 1.048-10 3.230-10
 NCO             3.976-10 1.251-10 3.902-11
 *NH             7.726-10 7.672-10 7.525-10
 NH2             7.3582-8 2.3193-8 7.2571-9
 NH3             6.0617-5 6.0728-6 6.0830-7
 NH2OH           1.287-11 1.282-12 1.267-13
 *NO             1.8134-7 5.6903-7 1.7669-6
 NO2             1.076-13 3.361-13 1.033-12
 *N2             5.9477-1 5.9473-1 5.9465-1
 NCN             4.332-15 4.303-16 4.217-17
 N2H2            1.378-11 1.372-12 1.356-13
 N2H4            1.600-13 1.598-15 1.588-17
 N2O             8.925-11 8.856-11 8.697-11
 N3              4.504-15 1.412-15 4.359-16
 N3H             1.638-13 1.628-14 1.602-15
 *O              6.506-10 6.435 -9 6.264 -8
 *OH             2.8565-6 8.9760-6 2.7945-5
 *O2             2.061-10 2.037 -9 1.983 -8

  * THERMODYNAMIC PROPERTIES FITTED TO 20000.K

    PRODUCTS WHICH WERE CONSIDERED BUT WHOSE MOLE FRACTIONS
    WERE LESS THAN 1.000000E-15 FOR ALL ASSIGNED CONDITIONS

 *C              CH3OOH          CNN             *C2             C2H4O,ethylen-o
 CH3N2CH3        CH3OCH3         CH3O2CH3        C3H3,1-propynl  C3H6O,propylox 
 C3H6O,acetone   C3H6O,propanal  CNCOCN          C4H2,butadiyne  C4H6,1butyne   
 C4H6,2butyne    C6H14,n-hexane  C7H16,2-methylh C10H8,naphthale HCCN           
 HNO3            (HCOOH)2        NO3             NH2NO2          N2O3           
 N2O4            N2O5            O3              C(gr)           H2O(cr)        

 NOTE. WEIGHT FRACTION OF FUEL IN TOTAL FUELS AND OF OXIDANT IN TOTAL OXIDANTS






 O/F =   7.800000

                       EFFECTIVE FUEL     EFFECTIVE OXIDANT        MIXTURE
 ENTHALPY                  h(2)/R              h(1)/R               h0/R
 (KG-MOL)(K)/KG       -0.15174026E+03      0.49401390E+02      0.26544384E+02

 KG-FORM.WT./KG             bi(2)               bi(1)               b0i
  *N                   0.00000000E+00      0.53915890E-01      0.47789084E-01
  *O                   0.00000000E+00      0.14486046E-01      0.12839904E-01
  *Ar                  0.00000000E+00      0.32331996E-03      0.28657905E-03
  *C                   0.72410090E-01      0.11013248E-04      0.82381810E-02
  *H                   0.12927767E+00      0.00000000E+00      0.14690644E-01

 POINT ITN      T            N           O           AR          C 
                    H 
   1    4    1984.929     -11.410     -22.824     -21.566      -8.689
                  -8.571
   2    4    1984.179     -12.561     -22.830     -23.868     -10.987
                  -9.721
   3    4    1982.107     -13.710     -22.844     -26.168     -13.280
                 -10.871




         THERMODYNAMIC EQUILIBRIUM COMBUSTION PROPERTIES AT ASSIGNED

                                   PRESSURES

 CASE = exam           

             REACTANT                    WT FRACTION      ENERGY      TEMP
                                          (SEE NOTE)     KJ/KG-MOL      K  
 OXIDANT     Air                          1.0000000     11897.374    700.000
 FUEL        C7H8(L)                      0.4000000     12179.997    298.150
 FUEL        C8H18(L),n-octa              0.6000000   -250260.000    298.150

 O/F=    7.80000  %FUEL= 11.363636  R,EQ.RATIO= 1.855285  PHI,EQ.RATIO= 1.856588

 THERMODYNAMIC PROPERTIES

 P, BAR            100.00   10.000   1.0000
 T, K             1984.93  1984.18  1982.11
 RHO, KG/CU M    1.5238 1 1.5242 0 1.5256-1
 H, KJ/KG          220.70   220.70   220.70
 U, KJ/KG         -435.53  -435.36  -434.79
 G, KJ/KG        -17197.0 -18701.0 -20190.4
 S, KJ/(KG)(K)     8.7750   9.5363  10.2977

 M, (1/n)          25.149   25.146   25.142
 (dLV/dLP)t      -1.00008 -1.00005 -1.00013
 (dLV/dLT)p        1.0006   1.0011   1.0035
 Cp, KJ/(KG)(K)    1.5216   1.5285   1.5507
 GAMMAs            1.2779   1.2768   1.2733
 SON VEL,M/SEC      915.7    915.2    913.6

 MOLE FRACTIONS

 *Ar             7.2072-3 7.2064-3 7.2051-3
 *CH             1.045-14 3.272-15 1.004-15
 CH2             7.586-12 7.550-13 7.422-14
 CH3             1.111 -8 3.516-10 1.110-11
 CH2OH           7.860-11 2.482-12 7.789-14
 CH3O            7.491-12 2.363-13 7.397-15
 CH4             1.214 -6 1.222 -8 1.236-10
 CH3OH           1.032 -9 1.035-11 1.039-13
 *CN             1.044-10 3.281-11 1.017-11
 *CO             1.7510-1 1.7509-1 1.7502-1
 *CO2            3.2068-2 3.2065-2 3.2104-2
 COOH            4.1537-8 1.3082-8 4.0935-9
 C2H             4.035-15 1.269-16 3.934-18
 C2H2,acetylene  4.888-10 4.901-12 4.906-14
 C2H2,vinylidene 4.155-14 4.149-16 4.107-18
 CH2CO,ketene    2.607 -9 2.614-11 2.622-13
 O(CH)2O         6.939-13 6.937-15 6.914-17
 HO(CO)2OH       1.152-14 1.151-16 1.147-18
 C2H3,vinyl      1.110-13 3.514-16 1.107-18
 CH3CN           3.767-11 3.792-14 3.834-17
 CH3CO,acetyl    1.500-12 4.751-15 1.502-17
 C2H4            3.676-11 3.702-14 3.746-17
 CH3CHO,ethanal  3.908-12 3.931-15 3.969-18
 CH3COOH         5.721-13 5.751-16 5.807-19
 OHCH2COOH       1.495-15 1.498-18 1.501-21
 C2H5            1.389-14 4.419-18 1.408-21
 C2H6            2.027-13 2.049-17 2.089-21
 C2H5OH          1.083-15 1.092-19 1.106-23
 OCCN            1.641-12 5.169-14 1.613-15
 *H              4.6660-5 1.4681-4 4.5740-4
 HCN             1.0153-5 1.0161-6 1.0154-7
 HCO             2.9790-7 9.3892-8 2.9380-8
 HCCO            2.875-12 9.066-14 2.835-15
 HNC             4.9782-7 4.9753-8 4.9520-9
 HNCO            2.4144-6 2.4149-7 2.4131-8
 HNO             3.279-10 3.251-10 3.177-10
 HNO2            1.299-12 1.285-12 1.250-12
 HO2             2.535-12 7.914-12 2.422-11
 *H2             1.0095-1 1.0098-1 1.0088-1
 HCHO,formaldehy 7.3191-7 7.3217-8 7.3123-9
 HCOOH           5.8407-7 5.8395-8 5.8338-9
 H2O             8.3668-2 8.3638-2 8.3547-2
 H2O2            3.172-11 3.143-11 3.068-11
 *N              5.613-11 1.755-10 5.384-10
 NCO             5.068-10 1.593-10 4.957-11
 *NH             1.0975-9 1.0887-9 1.0637-9
 NH2             8.3873-8 2.6419-8 8.2484-9
 NH3             5.1634-5 5.1724-6 5.1822-7
 NH2OH           1.637-11 1.629-12 1.605-13
 *NO             2.9807-7 9.3453-7 2.8913-6
 NO2             2.471-13 7.709-13 2.356-12
 *N2             6.0089-1 6.0085-1 6.0075-1
 NCN             5.573-15 5.528-16 5.397-17
 N2H2            1.628-11 1.620-12 1.596-13
 N2H4            1.545-13 1.543-15 1.531-17
 N2O             1.470-10 1.458-10 1.426-10
 N3              7.336-15 2.296-15 7.059-16
 N3H             2.207-13 2.192-14 2.149-15
 *O              1.2672-9 1.2517-8 1.2121-7
 *OH             4.2451-6 1.3329-5 4.1370-5
 *O2             4.533-10 4.475 -9 4.335 -8

  * THERMODYNAMIC PROPERTIES FITTED TO 20000.K

    PRODUCTS WHICH WERE CONSIDERED BUT WHOSE MOLE FRACTIONS
    WERE LESS THAN 1.000000E-15 FOR ALL ASSIGNED CONDITIONS

 *C              CH3OOH          CNN             *C2             C2H4O,ethylen-o
 CH3N2CH3        CH3OCH3         CH3O2CH3        C3H3,1-propynl  C3H3,2-propynl 
 C3H6O,propylox  C3H6O,acetone   C3H6O,propanal  CNCOCN          C4H2,butadiyne 
 C4H6,1butyne    C4H6,2butyne    C6H14,n-hexane  C7H16,2-methylh C10H8,naphthale
 HCCN            HNO3            (HCOOH)2        NO3             NH2NO2         
 N2O3            N2O4            N2O5            O3              C(gr)          
 H2O(cr)        

 NOTE. WEIGHT FRACTION OF FUEL IN TOTAL FUELS AND OF OXIDANT IN TOTAL OXIDANTS






 O/F =   8.000000

                       EFFECTIVE FUEL     EFFECTIVE OXIDANT        MIXTURE
 ENTHALPY                  h(2)/R              h(1)/R               h0/R
 (KG-MOL)(K)/KG       -0.15174026E+03      0.49401390E+02      0.27052318E+02

 KG-FORM.WT./KG             bi(2)               bi(1)               b0i
  *N                   0.00000000E+00      0.53915890E-01      0.47925235E-01
  *O                   0.00000000E+00      0.14486046E-01      0.12876485E-01
  *Ar                  0.00000000E+00      0.32331996E-03      0.28739552E-03
  *C                   0.72410090E-01      0.11013248E-04      0.80553551E-02
  *H                   0.12927767E+00      0.00000000E+00      0.14364186E-01

 POINT ITN      T            N           O           AR          C 
                    H 
   1    4    2018.026     -11.433     -22.482     -21.591      -9.009
                  -8.633
   2    4    2017.137     -12.584     -22.488     -23.893     -11.306
                  -9.784
   3    4    2014.603     -13.733     -22.505     -26.193     -13.597
                 -10.934




         THERMODYNAMIC EQUILIBRIUM COMBUSTION PROPERTIES AT ASSIGNED

                                   PRESSURES

 CASE = exam           

             REACTANT                    WT FRACTION      ENERGY      TEMP
                                          (SEE NOTE)     KJ/KG-MOL      K  
 OXIDANT     Air                          1.0000000     11897.374    700.000
 FUEL        C7H8(L)                      0.4000000     12179.997    298.150
 FUEL        C8H18(L),n-octa              0.6000000   -250260.000    298.150

 O/F=    8.00000  %FUEL= 11.111111  R,EQ.RATIO= 1.808941  PHI,EQ.RATIO= 1.810173

 THERMODYNAMIC PROPERTIES

 P, BAR            100.00   10.000   1.0000
 T, K             2018.03  2017.14  2014.60
 RHO, KG/CU M    1.5093 1 1.5098 0 1.5114-1
 H, KJ/KG          224.93   224.93   224.93
 U, KJ/KG         -437.61  -437.40  -436.71
 G, KJ/KG        -17453.5 -18970.7 -20469.9
 S, KJ/(KG)(K)     8.7603   9.5163  10.2724

 M, (1/n)          25.325   25.322   25.317
 (dLV/dLP)t      -1.00008 -1.00006 -1.00015
 (dLV/dLT)p        1.0006   1.0014   1.0043
 Cp, KJ/(KG)(K)    1.5194   1.5277   1.5542
 GAMMAs            1.2760   1.2747   1.2706
 SON VEL,M/SEC      919.4    918.8    916.9

 MOLE FRACTIONS

 *Ar             7.2783-3 7.2775-3 7.2759-3
 *CH             1.366-14 4.271-15 1.303-15
 CH2             7.752-12 7.707-13 7.552-14
 CH3             8.563 -9 2.710-10 8.548-12
 CH2OH           7.459-11 2.354-12 7.376-14
 CH3O            7.405-12 2.334-13 7.292-15
 CH4             7.247 -7 7.295 -9 7.394-11
 CH3OH           7.832-10 7.854-12 7.889-14
 *CN             1.214-10 3.809-11 1.177-11
 *CO             1.6978-1 1.6977-1 1.6968-1
 *CO2            3.4206-2 3.4207-2 3.4254-2
 COOH            5.1000-8 1.6054-8 5.0132-9
 C2H             3.850-15 1.209-16 3.734-18
 C2H2,acetylene  3.207-10 3.215-12 3.218-14
 C2H2,vinylidene 3.257-14 3.249-16 3.209-18
 CH2CO,ketene    1.878 -9 1.882-11 1.888-13
 O(CH)2O         6.207-13 6.204-15 6.178-17
 HO(CO)2OH       1.301-14 1.299-16 1.295-18
 C2H3,vinyl      7.470-14 2.364-16 7.445-19
 CH3CN           2.031-11 2.045-14 2.071-17
 CH3CO,acetyl    1.084-12 3.433-15 1.085-17
 C2H4            1.865-11 1.879-14 1.905-17
 CH3CHO,ethanal  2.317-12 2.330-15 2.356-18
 CH3COOH         3.819-13 3.840-16 3.883-19
 OHCH2COOH       1.264-15 1.266-18 1.269-21
 C2H5            7.242-15 2.303-18 7.344-22
 C2H6            8.321-14 8.415-18 8.610-22
 OCCN            1.662-12 5.231-14 1.629-15
 *H              5.6381-5 1.7725-4 5.5069-4
 HCN             8.4192-6 8.4247-7 8.4165-8
 HCO             3.2377-7 1.0198-7 3.1848-8
 HCCO            2.696-12 8.494-14 2.650-15
 HNC             4.3916-7 4.3873-8 4.3626-9
 HNCO            2.2593-6 2.2595-7 2.2573-8
 HNO             5.097-10 5.048-10 4.912-10
 HNO2            2.456-12 2.426-12 2.348-12
 HO2             5.181-12 1.615-11 4.910-11
 *H2             9.3890-2 9.3906-2 9.3785-2
 HCHO,formaldehy 6.5841-7 6.5852-8 6.5744-9
 HCOOH           5.9015-7 5.8997-8 5.8921-9
 H2O             8.7892-2 8.7854-2 8.7736-2
 H2O2            5.391-11 5.334-11 5.184-11
 *N              9.088-11 2.838-10 8.655-10
 NCO             6.337-10 1.991-10 6.174-11
 *NH             1.5168-9 1.5027-9 1.4619-9
 NH2             9.4132-8 2.9628-8 9.2277-9
 NH3             4.4046-5 4.4119-6 4.4213-7
 NH2OH           2.037-11 2.025-12 1.990-13
 *NO             4.7563-7 1.4896-6 4.5903-6
 NO2             5.410-13 1.685-12 5.116-12
 *N2             6.0683-1 6.0678-1 6.0665-1
 NCN             6.996-15 6.931-16 6.736-17
 N2H2            1.890-11 1.879-12 1.847-13
 N2H4            1.477-13 1.474-15 1.460-17
 N2O             2.352-10 2.329-10 2.270-10
 N3              1.156-14 3.612-15 1.105-15
 N3H             2.904-13 2.882-14 2.815-15
 *O              2.3679-9 2.3352-8 2.2480-7
 *OH             6.1459-6 1.9280-5 5.9631-5
 *O2             9.530-10 9.394 -9 9.045 -8

  * THERMODYNAMIC PROPERTIES FITTED TO 20000.K

    PRODUCTS WHICH WERE CONSIDERED BUT WHOSE MOLE FRACTIONS
    WERE LESS THAN 1.000000E-15 FOR ALL ASSIGNED CONDITIONS

 *C              CH3OOH          CNN             *C2             C2H4O,ethylen-o
 CH3N2CH3        C2H5OH          CH3OCH3         CH3O2CH3        C3H3,1-propynl 
 C3H3,2-propynl  C3H6O,propylox  C3H6O,acetone   C3H6O,propanal  CNCOCN         
 C4H2,butadiyne  C4H6,1butyne    C4H6,2butyne    C6H14,n-hexane  C7H16,2-methylh
 C10H8,naphthale HCCN            HNO3            (HCOOH)2        NO3            
 NH2NO2          N2O3            N2O4            N2O5            O3             
 C(gr)           H2O(cr)        

 NOTE. WEIGHT FRACTION OF FUEL IN TOTAL FUELS AND OF OXIDANT IN TOTAL OXIDANTS






 O/F =   8.200000

                       EFFECTIVE FUEL     EFFECTIVE OXIDANT        MIXTURE
 ENTHALPY                  h(2)/R              h(1)/R               h0/R
 (KG-MOL)(K)/KG       -0.15174026E+03      0.49401390E+02      0.27538167E+02

 KG-FORM.WT./KG             bi(2)               bi(1)               b0i
  *N                   0.00000000E+00      0.53915890E-01      0.48055467E-01
  *O                   0.00000000E+00      0.14486046E-01      0.12911476E-01
  *Ar                  0.00000000E+00      0.32331996E-03      0.28817648E-03
  *C                   0.72410090E-01      0.11013248E-04      0.78804781E-02
  *H                   0.12927767E+00      0.00000000E+00      0.14051921E-01

 POINT ITN      T            N           O           AR          C 
                    H 
   1    4    2049.922     -11.455     -22.158     -21.615      -9.315
                  -8.695
   2    4    2048.871     -12.605     -22.166     -23.917     -11.612
                  -9.846
   3    4    2045.810     -13.754     -22.185     -26.217     -13.900
                 -10.995




         THERMODYNAMIC EQUILIBRIUM COMBUSTION PROPERTIES AT ASSIGNED

                                   PRESSURES

 CASE = exam           

             REACTANT                    WT FRACTION      ENERGY      TEMP
                                          (SEE NOTE)     KJ/KG-MOL      K  
 OXIDANT     Air                          1.0000000     11897.374    700.000
 FUEL        C7H8(L)                      0.4000000     12179.997    298.150
 FUEL        C8H18(L),n-octa              0.6000000   -250260.000    298.150

 O/F=    8.20000  %FUEL= 10.869565  R,EQ.RATIO= 1.764858  PHI,EQ.RATIO= 1.766022

 THERMODYNAMIC PROPERTIES

 P, BAR            100.00   10.000   1.0000
 T, K             2049.92  2048.87  2045.81
 RHO, KG/CU M    1.4959 1 1.4965 0 1.4983-1
 H, KJ/KG          228.97   228.97   228.97
 U, KJ/KG         -439.54  -439.28  -438.45
 G, KJ/KG        -17698.5 -19227.9 -20735.4
 S, KJ/(KG)(K)     8.7455   9.4964  10.2475

 M, (1/n)          25.496   25.493   25.486
 (dLV/dLP)t      -1.00007 -1.00006 -1.00019
 (dLV/dLT)p        1.0007   1.0017   1.0051
 Cp, KJ/(KG)(K)    1.5173   1.5272   1.5585
 GAMMAs            1.2741   1.2726   1.2679
 SON VEL,M/SEC      922.9    922.2    919.9

 MOLE FRACTIONS

 *Ar             7.3473-3 7.3464-3 7.3445-3
 *C              1.312-15 1.289-15 1.224-15
 *CH             1.736-14 5.416-15 1.643-15
 CH2             7.799-12 7.744-13 7.561-14
 CH3             6.603 -9 2.089-10 6.585-12
 CH2OH           7.014-11 2.212-12 6.920-14
 CH3O            7.235-12 2.279-13 7.103-15
 CH4             4.387 -7 4.418 -9 4.487-11
 CH3OH           5.961-10 5.979-12 6.009-14
 *CN             1.386-10 4.346-11 1.338-11
 *CO             1.6450-1 1.6448-1 1.6437-1
 *CO2            3.6408-2 3.6413-2 3.6470-2
 COOH            6.1695-8 1.9408-8 6.0468-9
 C2H             3.618-15 1.135-16 3.490-18
 C2H2,acetylene  2.118-10 2.123-12 2.125-14
 C2H2,vinylidene 2.539-14 2.531-16 2.494-18
 CH2CO,ketene    1.359 -9 1.362-11 1.367-13
 O(CH)2O         5.528-13 5.523-15 5.496-17
 HO(CO)2OH       1.455-14 1.452-16 1.446-18
 C2H3,vinyl      5.036-14 1.593-16 5.012-19
 CH3CN           1.114-11 1.122-14 1.138-17
 CH3CO,acetyl    7.847-13 2.485-15 7.851-18
 C2H4            9.628-12 9.703-15 9.858-18
 CH3CHO,ethanal  1.389-12 1.398-15 1.416-18
 CH3COOH         2.572-13 2.587-16 2.620-19
 OHCH2COOH       1.066-15 1.068-18 1.071-21
 C2H5            3.821-15 1.215-18 3.880-22
 C2H6            3.502-14 3.544-18 3.640-22
 OCCN            1.665-12 5.236-14 1.626-15
 *H              6.7057-5 2.1061-4 6.5234-4
 HCN             6.9945-6 6.9978-7 6.9894-8
 HCO             3.4780-7 1.0947-7 3.4112-8
 HCCO            2.504-12 7.885-14 2.454-15
 HNC             3.8652-7 3.8598-8 3.8342-9
 HNCO            2.1113-6 2.1112-7 2.1086-8
 HNO             7.708-10 7.622-10 7.382-10
 HNO2            4.480-12 4.418-12 4.251-12
 HO2             1.016-11 3.160-11 9.544-11
 *H2             8.7172-2 8.7173-2 8.7037-2
 HCHO,formaldehy 5.9098-7 5.9096-8 5.8976-9
 HCOOH           5.9335-7 5.9311-8 5.9212-9
 H2O             9.1860-2 9.1812-2 9.1660-2
 H2O2            8.870-11 8.764-11 8.476-11
 *N              1.425-10 4.442-10 1.346 -9
 NCO             7.787-10 2.444-10 7.553-11
 *NH             2.0449-9 2.0230-9 1.9587-9
 NH2             1.0416-7 3.2756-8 1.0175-8
 NH3             3.7607-5 3.7669-6 3.7759-7
 NH2OH           2.486-11 2.470-12 2.420-13
 *NO             7.3929-7 2.3125-6 7.0943-6
 NO2             1.135-12 3.528-12 1.064-11
 *N2             6.1259-1 6.1253-1 6.1237-1
 NCN             8.589-15 8.496-16 8.216-17
 N2H2            2.159-11 2.145-12 2.101-13
 N2H4            1.399-13 1.395-15 1.379-17
 N2O             3.665-10 3.625-10 3.517-10
 N3              1.768-14 5.515-15 1.677-15
 N3H             3.743-13 3.709-14 3.609-15
 *O              4.2644-9 4.1976-8 4.0145-7
 *OH             8.6936-6 2.7241-5 8.3932-5
 *O2             1.9249-9 1.8940-8 1.8118-7

  * THERMODYNAMIC PROPERTIES FITTED TO 20000.K

    PRODUCTS WHICH WERE CONSIDERED BUT WHOSE MOLE FRACTIONS
    WERE LESS THAN 1.000000E-15 FOR ALL ASSIGNED CONDITIONS

 CH3OOH          CNN             *C2             C2H4O,ethylen-o CH3N2CH3       
 C2H5OH          CH3OCH3         CH3O2CH3        C3H3,1-propynl  C3H3,2-propynl 
 C3H6O,propylox  C3H6O,acetone   C3H6O,propanal  CNCOCN          C4H2,butadiyne 
 C4H6,1butyne    C4H6,2butyne    C6H14,n-hexane  C7H16,2-methylh C10H8,naphthale
 HCCN            HNO3            (HCOOH)2        NO3             NH2NO2         
 N2O3            N2O4            N2O5            O3              C(gr)          
 H2O(cr)        

 NOTE. WEIGHT FRACTION OF FUEL IN TOTAL FUELS AND OF OXIDANT IN TOTAL OXIDANTS






 O/F =   8.400000

                       EFFECTIVE FUEL     EFFECTIVE OXIDANT        MIXTURE
 ENTHALPY                  h(2)/R              h(1)/R               h0/R
 (KG-MOL)(K)/KG       -0.15174026E+03      0.49401390E+02      0.28003342E+02

 KG-FORM.WT./KG             bi(2)               bi(1)               b0i
  *N                   0.00000000E+00      0.53915890E-01      0.48180157E-01
  *O                   0.00000000E+00      0.14486046E-01      0.12944977E-01
  *Ar                  0.00000000E+00      0.32331996E-03      0.28892422E-03
  *C                   0.72410090E-01      0.11013248E-04      0.77130427E-02
  *H                   0.12927767E+00      0.00000000E+00      0.13752944E-01

 POINT ITN      T            N           O           AR          C 
                    H 
   1    4    2080.690     -11.476     -21.851     -21.638      -9.610
                  -8.757
   2    4    2079.449     -12.626     -21.859     -23.940     -11.906
                  -9.908
   3    4    2075.792     -13.775     -21.882     -26.239     -14.192
                 -11.057




         THERMODYNAMIC EQUILIBRIUM COMBUSTION PROPERTIES AT ASSIGNED

                                   PRESSURES

 CASE = exam           

             REACTANT                    WT FRACTION      ENERGY      TEMP
                                          (SEE NOTE)     KJ/KG-MOL      K  
 OXIDANT     Air                          1.0000000     11897.374    700.000
 FUEL        C7H8(L)                      0.4000000     12179.997    298.150
 FUEL        C8H18(L),n-octa              0.6000000   -250260.000    298.150

 O/F=    8.40000  %FUEL= 10.638298  R,EQ.RATIO= 1.722873  PHI,EQ.RATIO= 1.723974

 THERMODYNAMIC PROPERTIES

 P, BAR            100.00   10.000   1.0000
 T, K             2080.69  2079.45  2075.79
 RHO, KG/CU M    1.4833 1 1.4840 0 1.4862-1
 H, KJ/KG          232.83   232.83   232.83
 U, KJ/KG         -441.32  -441.01  -440.03
 G, KJ/KG        -17932.9 -19473.5 -20987.9
 S, KJ/(KG)(K)     8.7306   9.4767  10.2230

 M, (1/n)          25.662   25.658   25.650
 (dLV/dLP)t      -1.00007 -1.00008 -1.00022
 (dLV/dLT)p        1.0008   1.0020   1.0061
 Cp, KJ/(KG)(K)    1.5154   1.5271   1.5637
 GAMMAs            1.2724   1.2706   1.2652
 SON VEL,M/SEC      926.2    925.3    922.7

 MOLE FRACTIONS

 *Ar             7.4143-3 7.4133-3 7.4110-3
 *C              1.878-15 1.841-15 1.734-15
 *CH             2.148-14 6.687-15 2.015-15
 CH2             7.731-12 7.667-13 7.457-14
 CH3             5.087 -9 1.609-10 5.069-12
 CH2OH           6.538-11 2.060-12 6.434-14
 CH3O            6.992-12 2.200-13 6.842-15
 CH4             2.687 -7 2.707 -9 2.756-11
 CH3OH           4.545-10 4.559-12 4.585-14
 *CN             1.558-10 4.878-11 1.495-11
 *CO             1.5924-1 1.5921-1 1.5909-1
 *CO2            3.8679-2 3.8688-2 3.8754-2
 COOH            7.3640-8 2.3148-8 7.1940-9
 C2H             3.350-15 1.049-16 3.212-18
 C2H2,acetylene  1.406-10 1.409-12 1.410-14
 C2H2,vinylidene 1.967-14 1.959-16 1.926-18
 CH2CO,ketene    9.874-10 9.899-12 9.939-14
 O(CH)2O         4.901-13 4.895-15 4.866-17
 HO(CO)2OH       1.612-14 1.609-16 1.600-18
 C2H3,vinyl      3.395-14 1.073-16 3.374-19
 CH3CN           6.191-12 6.238-15 6.345-18
 CH3CO,acetyl    5.685-13 1.800-15 5.685-18
 C2H4            5.041-12 5.082-15 5.176-18
 CH3CHO,ethanal  8.412-13 8.467-16 8.592-19
 CH3COOH         1.744-13 1.755-16 1.781-19
 C2H5            2.035-15 6.475-19 2.070-22
 C2H6            1.505-14 1.525-18 1.572-22
 OCCN            1.650-12 5.184-14 1.605-15
 *H              7.8616-5 2.4665-4 7.6141-4
 HCN             5.8170-6 5.8188-7 5.8106-8
 HCO             3.6961-7 1.1624-7 3.6134-8
 HCCO            2.306-12 7.252-14 2.252-15
 HNC             3.3927-7 3.3865-8 3.3603-9
 HNCO            1.9698-6 1.9694-7 1.9665-8
 HNO             1.1372-9 1.1227-9 1.0816-9
 HNO2            7.916-12 7.791-12 7.448-12
 HO2             1.920-11 5.958-11 1.786-10
 *H2             8.0789-2 8.0777-2 8.0626-2
 HCHO,formaldehy 5.2917-7 5.2905-8 5.2775-9
 HCOOH           5.9384-7 5.9351-8 5.9227-9
 H2O             9.5573-2 9.5513-2 9.5319-2
 H2O2            1.418-10 1.399-10 1.345-10
 *N              2.171-10 6.753-10 2.033 -9
 NCO             9.418-10 2.952-10 9.090-11
 *NH             2.6959-9 2.6626-9 2.5646-9
 NH2             1.1378-7 3.5745-8 1.1071-8
 NH3             3.2125-5 3.2178-6 3.2264-7
 NH2OH           2.983-11 2.960-12 2.890-13
 *NO             1.1226-6 3.5063-6 1.0704-5
 NO2             2.293-12 7.111-12 2.128-11
 *N2             6.1817-1 6.1810-1 6.1791-1
 NCN             1.033-14 1.020-15 9.810-17
 N2H2            2.432-11 2.413-12 2.356-13
 N2H4            1.312-13 1.307-15 1.290-17
 N2O             5.579-10 5.511-10 5.320-10
 N3              2.632-14 8.195-15 2.476-15
 N3H             4.733-13 4.684-14 4.537-15
 *O              7.4314-9 7.2990-8 6.9305-7
 *OH             1.2045-5 3.7695-5 1.1565-4
 *O2             3.7528-9 3.6846-8 3.4995-7

  * THERMODYNAMIC PROPERTIES FITTED TO 20000.K

    PRODUCTS WHICH WERE CONSIDERED BUT WHOSE MOLE FRACTIONS
    WERE LESS THAN 1.000000E-15 FOR ALL ASSIGNED CONDITIONS

 CH3OOH          CNN             *C2             C2H4O,ethylen-o OHCH2COOH      
 CH3N2CH3        C2H5OH          CH3OCH3         CH3O2CH3        C3H3,1-propynl 
 C3H3,2-propynl  C3H6O,propylox  C3H6O,acetone   C3H6O,propanal  CNCOCN         
 C4H2,butadiyne  C4H6,1butyne    C4H6,2butyne    C6H14,n-hexane  C7H16,2-methylh
 C10H8,naphthale HCCN            HNO3            (HCOOH)2        NO3            
 NH2NO2          N2O3            N2O4            N2O5            O3             
 C(gr)           H2O(cr)        

 NOTE. WEIGHT FRACTION OF FUEL IN TOTAL FUELS AND OF OXIDANT IN TOTAL OXIDANTS






 O/F =   8.600000

                       EFFECTIVE FUEL     EFFECTIVE OXIDANT        MIXTURE
 ENTHALPY                  h(2)/R              h(1)/R               h0/R
 (KG-MOL)(K)/KG       -0.15174026E+03      0.49401390E+02      0.28449135E+02

 KG-FORM.WT./KG             bi(2)               bi(1)               b0i
  *N                   0.00000000E+00      0.53915890E-01      0.48299651E-01
  *O                   0.00000000E+00      0.14486046E-01      0.12977083E-01
  *Ar                  0.00000000E+00      0.32331996E-03      0.28964079E-03
  *C                   0.72410090E-01      0.11013248E-04      0.75525837E-02
  *H                   0.12927767E+00      0.00000000E+00      0.13466424E-01

 POINT ITN      T            N           O           AR          C 
                    H 
   1    4    2110.394     -11.496     -21.559     -21.660      -9.895
                  -8.819
   2    4    2108.936     -12.646     -21.568     -23.961     -12.191
                  -9.969
   3    4    2104.609     -13.794     -21.594     -26.260     -14.474
                 -11.119




         THERMODYNAMIC EQUILIBRIUM COMBUSTION PROPERTIES AT ASSIGNED

                                   PRESSURES

 CASE = exam           

             REACTANT                    WT FRACTION      ENERGY      TEMP
                                          (SEE NOTE)     KJ/KG-MOL      K  
 OXIDANT     Air                          1.0000000     11897.374    700.000
 FUEL        C7H8(L)                      0.4000000     12179.997    298.150
 FUEL        C8H18(L),n-octa              0.6000000   -250260.000    298.150

 O/F=    8.60000  %FUEL= 10.416667  R,EQ.RATIO= 1.682842  PHI,EQ.RATIO= 1.683882

 THERMODYNAMIC PROPERTIES

 P, BAR            100.00   10.000   1.0000
 T, K             2110.39  2108.94  2104.61
 RHO, KG/CU M    1.4716 1 1.4724 0 1.4749-1
 H, KJ/KG          236.54   236.54   236.54
 U, KJ/KG         -442.98  -442.61  -441.46
 G, KJ/KG        -18157.2 -19708.1 -21228.0
 S, KJ/(KG)(K)     8.7158   9.4572  10.1988

 M, (1/n)          25.822   25.819   25.809
 (dLV/dLP)t      -1.00006 -1.00009 -1.00026
 (dLV/dLT)p        1.0008   1.0023   1.0071
 Cp, KJ/(KG)(K)    1.5136   1.5273   1.5698
 GAMMAs            1.2707   1.2686   1.2624
 SON VEL,M/SEC      929.2    928.2    925.2

 MOLE FRACTIONS

 *Ar             7.4792-3 7.4781-3 7.4754-3
 *C              2.608-15 2.549-15 2.379-15
 *CH             2.593-14 8.054-15 2.409-15
 CH2             7.557-12 7.483-13 7.248-14
 CH3             3.912 -9 1.237-10 3.895-12
 CH2OH           6.043-11 1.903-12 5.931-14
 CH3O            6.686-12 2.102-13 6.519-15
 CH4             1.661 -7 1.675 -9 1.710-11
 CH3OH           3.469-10 3.480-12 3.502-14
 *CN             1.725-10 5.391-11 1.644-11
 *CO             1.5399-1 1.5396-1 1.5381-1
 *CO2            4.1026-2 4.1039-2 4.1113-2
 COOH            8.6835-8 2.7272-8 8.4521-9
 C2H             3.058-15 9.560-17 2.913-18
 C2H2,acetylene  9.357-11 9.375-13 9.389-15
 C2H2,vinylidene 1.513-14 1.506-16 1.477-18
 CH2CO,ketene    7.192-10 7.210-12 7.244-14
 O(CH)2O         4.324-13 4.317-15 4.287-17
 HO(CO)2OH       1.771-14 1.767-16 1.755-18
 C2H3,vinyl      2.286-14 7.224-17 2.269-19
 CH3CN           3.479-12 3.508-15 3.577-18
 CH3CO,acetyl    4.116-13 1.303-15 4.114-18
 C2H4            2.669-12 2.693-15 2.750-18
 CH3CHO,ethanal  5.130-13 5.167-16 5.254-19
 CH3COOH         1.190-13 1.198-16 1.218-19
 C2H5            1.092-15 3.474-19 1.112-22
 C2H6            6.580-15 6.673-19 6.913-23
 OCCN            1.619-12 5.081-14 1.568-15
 *H              9.0967-5 2.8506-4 8.7676-4
 HCN             4.8394-6 4.8402-7 4.8325-8
 HCO             3.8884-7 1.2219-7 3.7881-8
 HCCO            2.103-12 6.610-14 2.046-15
 HNC             2.9690-7 2.9622-8 2.9360-9
 HNCO            1.8345-6 1.8340-7 1.8307-8
 HNO             1.6410-9 1.6172-9 1.5490-9
 HNO2            1.359-11 1.335-11 1.267-11
 HO2             3.511-11 1.087-10 3.232-10
 *H2             7.4733-2 7.4711-2 7.4548-2
 HCHO,formaldehy 4.7258-7 4.7238-8 4.7101-9
 HCOOH           5.9176-7 5.9133-8 5.8979-9
 H2O             9.9035-2 9.8958-2 9.8715-2
 H2O2            2.210-10 2.176-10 2.080-10
 *N              3.224-10 1.000 -9 2.989 -9
 NCO             1.122 -9 3.514-10 1.078-10
 *NH             3.4825-9 3.4331-9 3.2881-9
 NH2             1.2280-7 3.8540-8 1.1899-8
 NH3             2.7445-5 2.7491-6 2.7574-7
 NH2OH           3.523-11 3.491-12 3.396-13
 *NO             1.6694-6 5.2056-6 1.5805-5
 NO2             4.481-12 1.386-11 4.111-11
 *N2             6.2359-1 6.2351-1 6.2328-1
 NCN             1.219-14 1.201-15 1.148-16
 N2H2            2.702-11 2.678-12 2.605-13
 N2H4            1.220-13 1.215-15 1.196-17
 N2O             8.321-10 8.205-10 7.878-10
 N3              3.824-14 1.188-14 3.565-15
 N3H             5.881-13 5.811-14 5.601-15
 *O              1.2574-8 1.2320-7 1.1605-6
 *OH             1.6382-5 5.1190-5 1.5632-4
 *O2             7.0898-9 6.9441-8 6.5428-7

  * THERMODYNAMIC PROPERTIES FITTED TO 20000.K

    PRODUCTS WHICH WERE CONSIDERED BUT WHOSE MOLE FRACTIONS
    WERE LESS THAN 1.000000E-15 FOR ALL ASSIGNED CONDITIONS

 CH3OOH          CNN             *C2             C2H4O,ethylen-o OHCH2COOH      
 CH3N2CH3        C2H5OH          CH3OCH3         CH3O2CH3        C3H3,1-propynl 
 C3H3,2-propynl  C3H6O,propylox  C3H6O,acetone   C3H6O,propanal  CNCOCN         
 C4H2,butadiyne  C4H6,1butyne    C4H6,2butyne    C6H14,n-hexane  C7H16,2-methylh
 C10H8,naphthale HCCN            HNO3            (HCOOH)2        NO3            
 NH2NO2          N2O3            N2O4            N2O5            O3             
 C(gr)           H2O(cr)        

 NOTE. WEIGHT FRACTION OF FUEL IN TOTAL FUELS AND OF OXIDANT IN TOTAL OXIDANTS






 O/F =   8.800000

                       EFFECTIVE FUEL     EFFECTIVE OXIDANT        MIXTURE
 ENTHALPY                  h(2)/R              h(1)/R               h0/R
 (KG-MOL)(K)/KG       -0.15174026E+03      0.49401390E+02      0.28876732E+02

 KG-FORM.WT./KG             bi(2)               bi(1)               b0i
  *N                   0.00000000E+00      0.53915890E-01      0.48414268E-01
  *O                   0.00000000E+00      0.14486046E-01      0.13007878E-01
  *Ar                  0.00000000E+00      0.32331996E-03      0.29032812E-03
  *C                   0.72410090E-01      0.11013248E-04      0.73986741E-02
  *H                   0.12927767E+00      0.00000000E+00      0.13191599E-01

 POINT ITN      T            N           O           AR          C 
                    H 
   1    4    2139.095     -11.515     -21.279     -21.681     -10.172
                  -8.881
   2    4    2137.390     -12.665     -21.290     -23.982     -12.466
                 -10.031
   3    4    2132.309     -13.812     -21.319     -26.279     -14.747
                 -11.180




         THERMODYNAMIC EQUILIBRIUM COMBUSTION PROPERTIES AT ASSIGNED

                                   PRESSURES

 CASE = exam           

             REACTANT                    WT FRACTION      ENERGY      TEMP
                                          (SEE NOTE)     KJ/KG-MOL      K  
 OXIDANT     Air                          1.0000000     11897.374    700.000
 FUEL        C7H8(L)                      0.4000000     12179.997    298.150
 FUEL        C8H18(L),n-octa              0.6000000   -250260.000    298.150

 O/F=    8.80000  %FUEL= 10.204082  R,EQ.RATIO= 1.644630  PHI,EQ.RATIO= 1.645612

 THERMODYNAMIC PROPERTIES

 P, BAR            100.00   10.000   1.0000
 T, K             2139.10  2137.39  2132.31
 RHO, KG/CU M    1.4607 1 1.4616 0 1.4645-1
 H, KJ/KG          240.10   240.10   240.10
 U, KJ/KG         -444.53  -444.09  -442.75
 G, KJ/KG        -18372.1 -19932.5 -21456.5
 S, KJ/(KG)(K)     8.7010   9.4380  10.1752

 M, (1/n)          25.979   25.974   25.963
 (dLV/dLP)t      -1.00006 -1.00010 -1.00031
 (dLV/dLT)p        1.0010   1.0027   1.0083
 Cp, KJ/(KG)(K)    1.5120   1.5279   1.5770
 GAMMAs            1.2691   1.2667   1.2597
 SON VEL,M/SEC      932.1    930.9    927.5

 MOLE FRACTIONS

 *Ar             7.5423-3 7.5411-3 7.5379-3
 *C              3.523-15 3.432-15 3.171-15
 *CH             3.060-14 9.479-15 2.813-15
 CH2             7.288-12 7.206-13 6.948-14
 CH3             3.002 -9 9.489-11 2.987-12
 CH2OH           5.540-11 1.743-12 5.422-14
 CH3O            6.329-12 1.988-13 6.147-15
 CH4             1.035 -7 1.045 -9 1.070-11
 CH3OH           2.648-10 2.656-12 2.676-14
 *CN             1.882-10 5.874-11 1.783-11
 *CO             1.4875-1 1.4871-1 1.4855-1
 *CO2            4.3451-2 4.3467-2 4.3549-2
 COOH            1.0126-7 3.1772-8 9.8163-9
 C2H             2.752-15 8.589-17 2.603-18
 C2H2,acetylene  6.239-11 6.250-13 6.263-15
 C2H2,vinylidene 1.156-14 1.149-16 1.124-18
 CH2CO,ketene    5.245-10 5.259-12 5.288-14
 O(CH)2O         3.796-13 3.788-15 3.758-17
 HO(CO)2OH       1.930-14 1.925-16 1.910-18
 C2H3,vinyl      1.535-14 4.850-17 1.522-19
 CH3CN           1.972-12 1.990-15 2.036-18
 CH3CO,acetyl    2.976-13 9.416-16 2.974-18
 C2H4            1.426-12 1.440-15 1.475-18
 CH3CHO,ethanal  3.146-13 3.170-16 3.232-19
 CH3COOH         8.145-14 8.205-17 8.363-20
 C2H6            2.917-15 2.963-19 3.085-23
 OCCN            1.573-12 4.930-14 1.516-15
 *H              1.0400-4 3.2548-4 9.9710-4
 HCN             4.0251-6 4.0253-7 4.0184-8
 HCO             4.0522-7 1.2721-7 3.9327-8
 HCCO            1.902-12 5.970-14 1.843-15
 HNC             2.5896-7 2.5825-8 2.5567-9
 HNCO            1.7052-6 1.7045-7 1.7010-8
 HNO             2.3212-9 2.2828-9 2.1728-9
 HNO2            2.276-11 2.230-11 2.100-11
 HO2             6.235-11 1.925-10 5.671-10
 *H2             6.8999-2 6.8969-2 6.8797-2
 HCHO,formaldehy 4.2086-7 4.2059-8 4.1919-9
 HCOOH           5.8725-7 5.8670-8 5.8482-9
 H2O             1.0225-1 1.0215-1 1.0185-1
 H2O2            3.365-10 3.306-10 3.139-10
 *N              4.674-10 1.446 -9 4.288 -9
 NCO             1.320 -9 4.126-10 1.260-10
 *NH             4.4156-9 4.3441-9 4.1349-9
 NH2             1.3109-7 4.1092-8 1.2643-8
 NH3             2.3441-5 2.3481-6 2.3562-7
 NH2OH           4.101-11 4.058-12 3.932-13
 *NO             2.4368-6 7.5838-6 2.2889-5
 NO2             8.497-12 2.620-11 7.699-11
 *N2             6.2885-1 6.2876-1 6.2849-1
 NCN             1.412-14 1.389-15 1.320-16
 N2H2            2.966-11 2.935-12 2.844-13
 N2H4            1.125-13 1.120-15 1.100-17
 N2O             1.2180-9 1.1987-9 1.1441-9
 N3              5.436-14 1.685-14 5.017-15
 N3H             7.193-13 7.094-14 6.802-15
 *O              2.0720-8 2.0244-7 1.8904-6
 *OH             2.1910-5 6.8353-5 2.0765-4
 *O2             1.3024-8 1.2721-7 1.1880-6

  * THERMODYNAMIC PROPERTIES FITTED TO 20000.K

    PRODUCTS WHICH WERE CONSIDERED BUT WHOSE MOLE FRACTIONS
    WERE LESS THAN 1.000000E-15 FOR ALL ASSIGNED CONDITIONS

 CH3OOH          CNN             *C2             C2H4O,ethylen-o OHCH2COOH      
 C2H5            CH3N2CH3        C2H5OH          CH3OCH3         CH3O2CH3       
 C3H3,1-propynl  C3H3,2-propynl  C3H6O,propylox  C3H6O,acetone   C3H6O,propanal 
 CNCOCN          C4H2,butadiyne  C4H6,1butyne    C4H6,2butyne    C6H14,n-hexane 
 C7H16,2-methylh C10H8,naphthale HCCN            HNO3            (HCOOH)2       
 NO3             NH2NO2          N2O3            N2O4            N2O5           
 O3              C(gr)           H2O(cr)        

 NOTE. WEIGHT FRACTION OF FUEL IN TOTAL FUELS AND OF OXIDANT IN TOTAL OXIDANTS



